<?xml version="1.0" encoding="UTF-8"?>

<!-- generated on 04/19/21 17:56:12 by Eclipse SUMO duarouter Version 1.8.0
<configuration xmlns:xsi="http://www.w3.org/2001/XMLSchema-instance" xsi:noNamespaceSchemaLocation="http://sumo.dlr.de/xsd/duarouterConfiguration.xsd">

    <input>
        <net-file value="sumo_files/osm.net.xml"/>
        <route-files value="trips.trips.xml"/>
    </input>

    <output>
        <output-file value="trips.trips.xml.tmp"/>
        <write-trips value="true"/>
    </output>

    <processing>
        <remove-loops value="true"/>
    </processing>

    <time>
        <begin value="0"/>
        <end value="100"/>
    </time>

    <report>
        <no-warnings value="true"/>
        <ignore-errors value="true"/>
        <no-step-log value="true"/>
    </report>

</configuration>
-->

<routes xmlns:xsi="http://www.w3.org/2001/XMLSchema-instance"
        xsi:noNamespaceSchemaLocation="http://sumo.dlr.de/xsd/routes_file.xsd">
    <trip id="0" depart="0.00" from="-79396155#1" to="79396163#2" via="-587489968#0"/>
    <trip id="1" depart="1.00" from="906615580#1" to="79262663#0" via="-906615585"/>
    <trip id="2" depart="2.00" from="-82534324#0" to="-79396183#3" via="-587489968#0"/>
    <trip id="3" depart="3.00" from="906615576#0" to="-110971342#2" via="298563412"/>
    <trip id="4" depart="4.00" from="-587489968#1" to="79867013#2" via="-906615585"/>
    <trip id="5" depart="5.00" from="-906498865" to="110971334" via="-587489968#0"/>
    <trip id="6" depart="6.00" from="443232854" to="62166875#1" via="-587489968#0"/>
    <trip id="7" depart="7.00" from="-79264323" to="298563412#1" via="-587489968#0"/>
    <trip id="8" depart="8.00" from="-392822665#3" to="82534324#1" via="-587489968#0"/>
    <trip id="9" depart="9.00" from="442156759#3" to="442154682#0" via="-906615585"/>
    <trip id="10" depart="10.00" from="442062982#6" to="442152905" via="298563412"/>
    <trip id="11" depart="11.00" from="441702871" to="79867013#0" via="-906615585"/>
    <trip id="12" depart="12.00" from="79396150#0" to="292874238#0" via="-906615585"/>
    <trip id="13" depart="13.00" from="-79262657#3" to="292874238#1" via="-587489968#0"/>
    <trip id="14" depart="14.00" from="758800288#1" to="79262655#0" via="-587489968#0"/>
    <trip id="15" depart="15.00" from="-79264326#0" to="441702871" via="-587489968#0"/>
    <trip id="16" depart="16.00" from="79396116#0" to="79262664#0" via="298563412"/>
    <trip id="17" depart="17.00" from="441755466" to="79396110#3" via="-587489968#0"/>
    <trip id="18" depart="18.00" from="-906498865" to="79262663#3" via="-906615585"/>
    <trip id="19" depart="19.00" from="892584574#1" to="292874238#2" via="298563412"/>
    <trip id="20" depart="20.00" from="79262633#1" to="392822665#2" via="-906615585"/>
    <trip id="21" depart="21.00" from="147391538#3" to="84678515" via="-906615585"/>
    <trip id="22" depart="22.00" from="82534343#5" to="-442062982#9" via="-587489968#0"/>
    <trip id="23" depart="23.00" from="-84678509#2" to="79262663#0" via="-587489968#0"/>
    <trip id="24" depart="24.00" from="442154357" to="442156757" via="298563412"/>
    <trip id="25" depart="25.00" from="-79867013#1" to="122726140#2" via="298563412"/>
    <trip id="26" depart="26.00" from="442156757" to="-292874238#1" via="-587489968#0"/>
    <trip id="27" depart="27.00" from="79262633#9" to="758800288#1" via="298563412"/>
    <trip id="28" depart="28.00" from="-79396099" to="758800287" via="-906615585"/>
    <trip id="29" depart="29.00" from="442156757" to="892584574#0" via="-906615585"/>
    <trip id="30" depart="30.00" from="292874238#1" to="442156759#1" via="-906615585"/>
    <trip id="31" depart="31.00" from="-79396109#2" to="-442062982#7" via="-906615585"/>
    <trip id="32" depart="32.00" from="-79264326#0" to="906511011#0" via="-906615585"/>
    <trip id="33" depart="33.00" from="79396163#0" to="392822664#3" via="-587489968#0"/>
    <trip id="34" depart="34.00" from="79262638" to="-79396124#1" via="298563412"/>
    <trip id="35" depart="35.00" from="82534343#4" to="442156759#4" via="298563412"/>
    <trip id="36" depart="36.00" from="-79262633#0" to="758800287" via="-906615585"/>
    <trip id="37" depart="37.00" from="-392822665#5" to="443232854" via="-587489968#0"/>
    <trip id="38" depart="38.00" from="79262655#2" to="79262655#0" via="-587489968#0"/>
    <trip id="39" depart="39.00" from="122726140#4" to="79262655#2" via="-587489968#0"/>
    <trip id="40" depart="40.00" from="79396116#5" to="-147391538#2" via="-906615585"/>
    <trip id="41" depart="41.00" from="169424746" to="122726134#1" via="298563412"/>
    <trip id="42" depart="42.00" from="-79262642#1" to="-442062982#10" via="-587489968#0"/>
    <trip id="43" depart="43.00" from="-79262642#1" to="-79396116#4" via="298563412"/>
    <trip id="44" depart="44.00" from="-79262655#2" to="84678475" via="298563412"/>
    <trip id="45" depart="45.00" from="-292874238#2" to="-392822665#5" via="298563412"/>
    <trip id="46" depart="46.00" from="-442062982#1" to="392822664#5" via="-906615585"/>
    <trip id="47" depart="47.00" from="-79262642#0" to="79262663#1" via="-906615585"/>
    <trip id="48" depart="48.00" from="-79262663#6" to="-147391538#1" via="-587489968#0"/>
    <trip id="49" depart="49.00" from="-392822665#6" to="79262655#2" via="-906615585"/>
    <trip id="50" depart="50.00" from="906615580#0" to="62166847#0" via="298563412"/>
    <trip id="51" depart="51.00" from="-292874238#0" to="442156758" via="-587489968#0"/>
    <trip id="52" depart="52.00" from="-906517535" to="122726140#4" via="-587489968#0"/>
    <trip id="53" depart="53.00" from="298563412#1" to="-79262655#4" via="-906615585"/>
    <trip id="54" depart="54.00" from="442152905" to="-147391538#3" via="-906615585"/>
    <trip id="55" depart="55.00" from="906615580#0" to="392822665#2" via="-587489968#0"/>
    <trip id="56" depart="56.00" from="79396183#2" to="-147391538#2" via="-587489968#0"/>
    <trip id="57" depart="57.00" from="79262672#0" to="442154682#0" via="-906615585"/>
    <trip id="58" depart="58.00" from="442062984#1" to="758800288#1" via="-906615585"/>
    <trip id="59" depart="59.00" from="442156759#2" to="79262674" via="-906615585"/>
    <trip id="60" depart="60.00" from="79262633#1" to="169424742" via="298563412"/>
    <trip id="61" depart="61.00" from="392822663" to="79262633#4" via="-906615585"/>
    <trip id="62" depart="62.00" from="122726134#0" to="-79396117#1" via="298563412"/>
    <trip id="63" depart="63.00" from="-82534324#0" to="392822666" via="298563412"/>
    <trip id="64" depart="64.00" from="79396163#1" to="-292874238#1" via="298563412"/>
    <trip id="65" depart="65.00" from="79396117#0" to="292874238#1" via="-587489968#0"/>
    <trip id="66" depart="66.00" from="906498861" to="392822665#2" via="-906615585"/>
    <trip id="67" depart="67.00" from="392822664#2" to="-441754000#2" via="-906615585"/>
    <trip id="68" depart="68.00" from="147391538#2" to="443232854" via="-587489968#0"/>
    <trip id="69" depart="69.00" from="392822664#1" to="122726125" via="-906615585"/>
    <trip id="70" depart="70.00" from="392822665#2" to="-892584574#1" via="298563412"/>
    <trip id="71" depart="71.00" from="-79264326#0" to="79262663#3" via="-587489968#0"/>
    <trip id="72" depart="72.00" from="-79262663#6" to="-587489968#1" via="-906615585"/>
    <trip id="73" depart="73.00" from="443232790#0" to="557412468" via="298563412"/>
    <trip id="74" depart="74.00" from="147391538#4" to="-79264372#1" via="-906615585"/>
    <trip id="75" depart="75.00" from="79396116#4" to="442156759#1" via="-906615585"/>
    <trip id="76" depart="76.00" from="-79396099" to="-79264372#1" via="298563412"/>
    <trip id="77" depart="77.00" from="-79262663#6" to="442062984#1" via="-587489968#0"/>
    <trip id="78" depart="78.00" from="-79262642#1" to="442156759#4" via="-906615585"/>
    <trip id="79" depart="79.00" from="79262663#1" to="557412468" via="-906615585"/>
    <trip id="80" depart="80.00" from="-79262663#6" to="-442062982#1" via="-906615585"/>
    <trip id="81" depart="81.00" from="79396150#0" to="-79396116#5" via="-587489968#0"/>
    <trip id="82" depart="82.00" from="-443232854" to="79262633#15" via="-587489968#0"/>
    <trip id="83" depart="83.00" from="169424746" to="392822664#5" via="-587489968#0"/>
    <trip id="84" depart="84.00" from="147391538#0" to="891016337#0" via="-906615585"/>
    <trip id="85" depart="85.00" from="298563412#1" to="82534343#1" via="-906615585"/>
    <trip id="86" depart="86.00" from="442156759#0" to="79396110#0" via="-587489968#0"/>
    <trip id="87" depart="87.00" from="-82534324#0" to="-442062982#1" via="-906615585"/>
    <trip id="88" depart="88.00" from="-392822665#3" to="122726134#1" via="298563412"/>
    <trip id="89" depart="89.00" from="442156759#4" to="906498865" via="-587489968#0"/>
    <trip id="90" depart="90.00" from="79262638" to="79262672#0" via="-906615585"/>
    <trip id="91" depart="91.00" from="-443232854" to="110971337" via="298563412"/>
    <trip id="92" depart="92.00" from="79262633#1" to="392822664#1" via="-906615585"/>
    <trip id="93" depart="93.00" from="392822665#6" to="169424742" via="298563412"/>
    <trip id="94" depart="94.00" from="147391538#2" to="392822665#4" via="298563412"/>
    <trip id="95" depart="95.00" from="-292874238#0" to="442152905" via="-587489968#0"/>
    <trip id="96" depart="96.00" from="79396116#5" to="79262650" via="-587489968#0"/>
    <trip id="97" depart="97.00" from="82534335#4" to="110971340#0" via="-906615585"/>
    <trip id="98" depart="98.00" from="-79262655#1" to="-79262633#0" via="-906615585"/>
    <trip id="99" depart="99.00" from="82534335#2" to="-442062982#7" via="298563412"/>
</routes>
