<?xml version="1.0" encoding="UTF-8"?>

<!-- generated on 04/09/21 21:39:09 by Eclipse SUMO duarouter Version 1.8.0
<configuration xmlns:xsi="http://www.w3.org/2001/XMLSchema-instance" xsi:noNamespaceSchemaLocation="http://sumo.dlr.de/xsd/duarouterConfiguration.xsd">

    <input>
        <net-file value="sumo_files/osm.net.xml"/>
        <route-files value="trips.trips.xml"/>
    </input>

    <output>
        <output-file value="trips.trips.xml.tmp"/>
        <write-trips value="true"/>
    </output>

    <processing>
        <remove-loops value="true"/>
    </processing>

    <time>
        <begin value="0"/>
        <end value="500.0"/>
    </time>

    <report>
        <no-warnings value="true"/>
        <ignore-errors value="true"/>
        <no-step-log value="true"/>
    </report>

</configuration>
-->

<routes xmlns:xsi="http://www.w3.org/2001/XMLSchema-instance"
        xsi:noNamespaceSchemaLocation="http://sumo.dlr.de/xsd/routes_file.xsd">
    <trip id="0" depart="0.00" from="-79396110#2" to="84678515" via="-587489968#0"/>
    <trip id="1" depart="5.00" from="906498863#0" to="-79396110#2" via="-587489968#0"/>
    <trip id="2" depart="10.00" from="122726140#2" to="-79262655#3" via="-906615585"/>
    <trip id="3" depart="15.00" from="758800288#1" to="169424742" via="298563412"/>
    <trip id="4" depart="20.00" from="79396109#0" to="392822665#6" via="298563412"/>
    <trip id="5" depart="25.00" from="-79262633#0" to="82534343#5" via="-587489968#0"/>
    <trip id="6" depart="30.00" from="79262650" to="443232854" via="-906615585"/>
    <trip id="7" depart="35.00" from="-906517535" to="-442062982#4" via="298563412"/>
    <trip id="8" depart="40.00" from="79262650" to="392822665#4" via="-906615585"/>
    <trip id="9" depart="45.00" from="442062982#2" to="-442062982#1" via="298563412"/>
    <trip id="10" depart="50.00" from="-79262674" to="79396124#0" via="-587489968#0"/>
    <trip id="11" depart="55.00" from="892584574#1" to="79396110#0" via="-906615585"/>
    <trip id="12" depart="60.00" from="122726125" to="79264326#1" via="-587489968#0"/>
    <trip id="13" depart="65.00" from="122726134#1" to="-330224640" via="-587489968#0"/>
    <trip id="14" depart="70.00" from="-79262655#1" to="62166875#0" via="298563412"/>
    <trip id="15" depart="75.00" from="442154682#1" to="-79396093" via="-587489968#0"/>
    <trip id="16" depart="80.00" from="292874238#2" to="292874238#0" via="298563412"/>
    <trip id="17" depart="85.00" from="906615580#0" to="392822665#1" via="-906615585"/>
    <trip id="18" depart="90.00" from="79396181" to="79262663#0" via="-906615585"/>
    <trip id="19" depart="95.00" from="906498861" to="79396116#0" via="-906615585"/>
    <trip id="20" depart="100.00" from="442062982#10" to="906498862" via="-906615585"/>
    <trip id="21" depart="105.00" from="-79262639" to="442156756" via="298563412"/>
    <trip id="22" depart="110.00" from="330224640" to="-906511012" via="-906615585"/>
    <trip id="23" depart="115.00" from="79262655#3" to="392822665#2" via="-906615585"/>
    <trip id="24" depart="120.00" from="-79396155#1" to="82534343#2" via="-587489968#0"/>
    <trip id="25" depart="125.00" from="122726125" to="392822666" via="298563412"/>
    <trip id="26" depart="130.00" from="392822665#0" to="758800288#1" via="-587489968#0"/>
    <trip id="27" depart="135.00" from="392822665#4" to="-147391538#3" via="298563412"/>
    <trip id="28" depart="140.00" from="587489968#1" to="906498862" via="-906615585"/>
    <trip id="29" depart="145.00" from="79867013#2" to="906511012" via="-587489968#0"/>
    <trip id="30" depart="150.00" from="-79396147#1" to="82534343#4" via="298563412"/>
    <trip id="31" depart="155.00" from="79396163#1" to="-147391538#5" via="-906615585"/>
    <trip id="32" depart="160.00" from="906498862" to="906498861" via="-906615585"/>
    <trip id="33" depart="165.00" from="79396116#5" to="79396116#0" via="298563412"/>
    <trip id="34" depart="170.00" from="-392822665#5" to="-892584574#0" via="-587489968#0"/>
    <trip id="35" depart="175.00" from="79396163#1" to="79262655#2" via="-587489968#0"/>
    <trip id="36" depart="180.00" from="-79262633#14" to="-330224640" via="-906615585"/>
    <trip id="37" depart="185.00" from="82534335#3" to="442156757" via="298563412"/>
    <trip id="38" depart="190.00" from="892584574#1" to="442152905" via="-906615585"/>
    <trip id="39" depart="195.00" from="79396116#5" to="442156759#2" via="-587489968#0"/>
    <trip id="40" depart="200.00" from="79396181" to="392822666" via="-587489968#0"/>
    <trip id="41" depart="205.00" from="443232790#0" to="-147391538#5" via="298563412"/>
    <trip id="42" depart="210.00" from="-79262642#0" to="-443232790#1" via="298563412"/>
    <trip id="43" depart="215.00" from="-392822665#7" to="392822665#4" via="-587489968#0"/>
    <trip id="44" depart="220.00" from="392822664#1" to="79262650" via="-587489968#0"/>
    <trip id="45" depart="225.00" from="84678483" to="79262672#1" via="-587489968#0"/>
    <trip id="46" depart="230.00" from="62166847#1" to="906498861" via="298563412"/>
    <trip id="47" depart="235.00" from="906615576#0" to="79396110#0" via="-587489968#0"/>
    <trip id="48" depart="240.00" from="758800287" to="-147391538#1" via="298563412"/>
    <trip id="49" depart="245.00" from="392822668" to="-79262655#4" via="298563412"/>
    <trip id="50" depart="250.00" from="82534335#4" to="79869142#0" via="298563412"/>
    <trip id="51" depart="255.00" from="-443232790#1" to="79262674" via="-587489968#0"/>
    <trip id="52" depart="260.00" from="122726140#4" to="82534343#6" via="-587489968#0"/>
    <trip id="53" depart="265.00" from="79262650" to="-79262650" via="298563412"/>
    <trip id="54" depart="270.00" from="292874238#3" to="-392822665#3" via="298563412"/>
    <trip id="55" depart="275.00" from="-79262655#1" to="392822668" via="298563412"/>
    <trip id="56" depart="280.00" from="-79396110#5" to="79262663#1" via="-906615585"/>
    <trip id="57" depart="285.00" from="906615576#0" to="79262664#0" via="-587489968#0"/>
    <trip id="58" depart="290.00" from="-79396109#2" to="-442062982#7" via="-906615585"/>
    <trip id="59" depart="295.00" from="84678483" to="79262633#9" via="-587489968#0"/>
    <trip id="60" depart="300.00" from="-79262655#1" to="-443232790#1" via="298563412"/>
    <trip id="61" depart="305.00" from="122726134#0" to="79262674" via="298563412"/>
    <trip id="62" depart="310.00" from="442156759#0" to="82534343#3" via="-906615585"/>
    <trip id="63" depart="315.00" from="392822665#2" to="82534324#0" via="-587489968#0"/>
    <trip id="64" depart="320.00" from="110971340#0" to="892584574#1" via="298563412"/>
    <trip id="65" depart="325.00" from="-892584574#0" to="-79396116#5" via="-587489968#0"/>
    <trip id="66" depart="330.00" from="392822665#2" to="-442062982#10" via="298563412"/>
    <trip id="67" depart="335.00" from="298563412#1" to="-79262655#4" via="-906615585"/>
    <trip id="68" depart="340.00" from="82534343#4" to="-122726134#0" via="298563412"/>
    <trip id="69" depart="345.00" from="-79262655#2" to="392822665#1" via="-906615585"/>
    <trip id="70" depart="350.00" from="-79396147#1" to="79262642#0" via="-906615585"/>
    <trip id="71" depart="355.00" from="82534335#3" to="906498863#0" via="-906615585"/>
    <trip id="72" depart="360.00" from="-79262657#3" to="292874238#0" via="-587489968#0"/>
    <trip id="73" depart="365.00" from="906511012" to="392822665#7" via="298563412"/>
    <trip id="74" depart="370.00" from="392822664#0" to="758800288#1" via="298563412"/>
    <trip id="75" depart="375.00" from="-587489968#1" to="82534335#1" via="-587489968#0"/>
    <trip id="76" depart="380.00" from="79262655#4" to="-147391538#3" via="298563412"/>
    <trip id="77" depart="385.00" from="-79396109#2" to="79262642#0" via="298563412"/>
    <trip id="78" depart="390.00" from="-79264323" to="122726140#5" via="298563412"/>
    <trip id="79" depart="395.00" from="79262635#0" to="392822665#7" via="298563412"/>
    <trip id="80" depart="400.00" from="442062984#0" to="-79396116#5" via="-906615585"/>
    <trip id="81" depart="405.00" from="-79869125#1" to="-442062982#4" via="298563412"/>
    <trip id="82" depart="410.00" from="79262663#0" to="-122726134#1" via="-906615585"/>
    <trip id="83" depart="415.00" from="-557412468" to="-442062982#2" via="-587489968#0"/>
    <trip id="84" depart="420.00" from="-891016337#2" to="-79262663#0" via="298563412"/>
    <trip id="85" depart="425.00" from="442156759#0" to="442156759#4" via="-587489968#0"/>
    <trip id="86" depart="430.00" from="-147391538#3" to="-84678509#2" via="-906615585"/>
    <trip id="87" depart="435.00" from="62166875#1" to="-443232790#1" via="-587489968#0"/>
    <trip id="88" depart="440.00" from="442154682#1" to="79262633#4" via="-587489968#0"/>
    <trip id="89" depart="445.00" from="-892584574#0" to="-79262633#0" via="298563412"/>
    <trip id="90" depart="450.00" from="442062982#10" to="-442062982#2" via="-906615585"/>
    <trip id="91" depart="455.00" from="-79396183#3" to="79262663#0" via="-906615585"/>
    <trip id="92" depart="460.00" from="79262655#4" to="62166847#0" via="-587489968#0"/>
    <trip id="93" depart="465.00" from="79262672#1" to="122726139" via="298563412"/>
    <trip id="94" depart="470.00" from="79396163#0" to="906511011#0" via="298563412"/>
    <trip id="95" depart="475.00" from="-392822665#5" to="79396110#0" via="-906615585"/>
    <trip id="96" depart="480.00" from="-891016337#2" to="906498865" via="-906615585"/>
    <trip id="97" depart="485.00" from="906511012" to="892584574#0" via="-587489968#0"/>
    <trip id="98" depart="490.00" from="-442062982#9" to="442062984#1" via="298563412"/>
    <trip id="99" depart="495.00" from="-79262655#2" to="79262672#0" via="-906615585"/>
</routes>
