<?xml version="1.0" encoding="UTF-8"?>

<!-- generated on 02/26/21 11:39:21 by Eclipse SUMO netedit Version 1.8.0
<configuration xmlns:xsi="http://www.w3.org/2001/XMLSchema-instance" xsi:noNamespaceSchemaLocation="http://sumo.dlr.de/xsd/netconvertConfiguration.xsd">

    <input>
        <sumo-net-file value="C:\Users\lenovo\Desktop\sumo-1.8.0\Lavoro_Tesi\data\Napoli.net.xml"/>
    </input>

    <output>
        <output-file value="C:\Users\lenovo\Desktop\sumo-1.8.0\Lavoro_Tesi\data\Napoli.net.xml"/>
    </output>

    <processing>
        <geometry.min-radius.fix.railways value="false"/>
        <geometry.max-grade.fix value="false"/>
        <offset.disable-normalization value="true"/>
        <lefthand value="false"/>
    </processing>

    <junctions>
        <no-turnarounds value="true"/>
        <junctions.corner-detail value="5"/>
        <junctions.limit-turn-speed value="5.5"/>
        <rectangular-lane-cut value="false"/>
    </junctions>

    <pedestrian>
        <walkingareas value="false"/>
    </pedestrian>

    <report>
        <aggregate-warnings value="5"/>
    </report>

</configuration>
-->

<net version="1.6" junctionCornerDetail="5" limitTurnSpeed="5.50" xmlns:xsi="http://www.w3.org/2001/XMLSchema-instance" xsi:noNamespaceSchemaLocation="http://sumo.dlr.de/xsd/net_file.xsd">

    <location netOffset="-434221.68,-4520740.97" convBoundary="0.00,0.00,5277.90,3887.73" origBoundary="14.219815,40.835066,14.294345,40.871202" projParameter="+proj=utm +zone=33 +ellps=WGS84 +datum=WGS84 +units=m +no_defs"/>

    <type id="highway.bridleway" priority="1" numLanes="1" speed="2.78" allow="pedestrian" oneway="1" width="2.00"/>
    <type id="highway.bus_guideway" priority="1" numLanes="1" speed="27.78" allow="bus" oneway="1"/>
    <type id="highway.cycleway" priority="1" numLanes="1" speed="8.33" allow="bicycle" oneway="1" width="1.00"/>
    <type id="highway.footway" priority="1" numLanes="1" speed="2.78" allow="pedestrian" oneway="1" width="2.00"/>
    <type id="highway.ford" priority="1" numLanes="1" speed="2.78" allow="army" oneway="1"/>
    <type id="highway.living_street" priority="2" numLanes="1" speed="2.78" disallow="tram rail_urban rail rail_electric rail_fast ship" oneway="1"/>
    <type id="highway.motorway" priority="14" numLanes="2" speed="39.44" allow="private emergency authority army vip passenger hov taxi bus coach delivery truck trailer motorcycle evehicle custom1 custom2" oneway="1"/>
    <type id="highway.motorway_link" priority="9" numLanes="1" speed="22.22" allow="private emergency authority army vip passenger hov taxi bus coach delivery truck trailer motorcycle evehicle custom1 custom2" oneway="1"/>
    <type id="highway.path" priority="1" numLanes="1" speed="2.78" allow="pedestrian bicycle" oneway="1" width="2.00"/>
    <type id="highway.pedestrian" priority="1" numLanes="1" speed="2.78" allow="pedestrian" oneway="1" width="2.00"/>
    <type id="highway.primary" priority="12" numLanes="2" speed="27.78" disallow="tram rail_urban rail rail_electric rail_fast ship" oneway="1"/>
    <type id="highway.primary_link" priority="7" numLanes="1" speed="22.22" disallow="tram rail_urban rail rail_electric rail_fast ship" oneway="1"/>
    <type id="highway.raceway" priority="15" numLanes="2" speed="83.33" allow="vip" oneway="1"/>
    <type id="highway.residential" priority="3" numLanes="1" speed="13.89" disallow="tram rail_urban rail rail_electric rail_fast ship" oneway="1"/>
    <type id="highway.secondary" priority="11" numLanes="1" speed="27.78" disallow="tram rail_urban rail rail_electric rail_fast ship" oneway="1"/>
    <type id="highway.secondary_link" priority="6" numLanes="1" speed="22.22" disallow="tram rail_urban rail rail_electric rail_fast ship" oneway="1"/>
    <type id="highway.service" priority="1" numLanes="1" speed="5.56" allow="pedestrian delivery bicycle" oneway="1"/>
    <type id="highway.stairs" priority="1" numLanes="1" speed="1.39" allow="pedestrian" oneway="1" width="2.00"/>
    <type id="highway.step" priority="1" numLanes="1" speed="1.39" allow="pedestrian" oneway="1" width="2.00"/>
    <type id="highway.steps" priority="1" numLanes="1" speed="1.39" allow="pedestrian" oneway="1" width="2.00"/>
    <type id="highway.tertiary" priority="10" numLanes="1" speed="22.22" disallow="tram rail_urban rail rail_electric rail_fast ship" oneway="1"/>
    <type id="highway.tertiary_link" priority="5" numLanes="1" speed="22.22" disallow="tram rail_urban rail rail_electric rail_fast ship" oneway="1"/>
    <type id="highway.track" priority="1" numLanes="1" speed="5.56" allow="pedestrian motorcycle moped bicycle" oneway="1"/>
    <type id="highway.trunk" priority="13" numLanes="2" speed="27.78" disallow="pedestrian bicycle tram rail_urban rail rail_electric rail_fast ship" oneway="1"/>
    <type id="highway.trunk_link" priority="8" numLanes="1" speed="22.22" disallow="pedestrian bicycle tram rail_urban rail rail_electric rail_fast ship" oneway="1"/>
    <type id="highway.unclassified" priority="4" numLanes="1" speed="13.89" disallow="tram rail_urban rail rail_electric rail_fast ship" oneway="1"/>
    <type id="highway.unsurfaced" priority="1" numLanes="1" speed="8.33" disallow="tram rail_urban rail rail_electric rail_fast ship" oneway="1"/>
    <type id="railway.highspeed" priority="21" numLanes="1" speed="69.44" allow="rail_fast" oneway="1"/>
    <type id="railway.light_rail" priority="19" numLanes="1" speed="27.78" allow="rail_urban" oneway="1"/>
    <type id="railway.preserved" priority="16" numLanes="1" speed="27.78" allow="rail" oneway="1"/>
    <type id="railway.rail" priority="20" numLanes="1" speed="44.44" allow="rail" oneway="1"/>
    <type id="railway.subway" priority="18" numLanes="1" speed="27.78" allow="rail_urban" oneway="1"/>
    <type id="railway.tram" priority="17" numLanes="1" speed="13.89" allow="tram" oneway="1"/>

    <edge id=":1121869802_0" function="internal">
        <lane id=":1121869802_0_0" index="0" disallow="pedestrian" speed="13.52" length="14.23" shape="4015.54,3597.50 4014.27,3594.16 4015.42,3591.51 4017.38,3588.61 4018.57,3584.52"/>
    </edge>
    <edge id=":1121869802_1" function="internal">
        <lane id=":1121869802_1_0" index="0" disallow="pedestrian" speed="6.29" length="13.67" shape="4010.82,3587.07 4013.98,3590.15 4016.32,3590.75 4017.85,3588.87 4018.57,3584.52"/>
    </edge>
    <edge id=":1121869802_2" function="internal">
        <lane id=":1121869802_2_0" index="0" disallow="pedestrian" speed="13.89" length="11.20" shape="4010.82,3587.07 4018.10,3595.58"/>
    </edge>
    <edge id=":1134071109_0" function="internal">
        <lane id=":1134071109_0_0" index="0" disallow="pedestrian" speed="6.96" length="9.63" shape="4564.86,3092.11 4562.51,3092.39 4560.69,3093.49 4559.41,3095.41 4558.65,3098.14"/>
    </edge>
    <edge id=":1134071109_1" function="internal">
        <lane id=":1134071109_1_0" index="0" disallow="pedestrian" speed="13.89" length="14.47" shape="4564.86,3092.11 4550.41,3091.43"/>
    </edge>
    <edge id=":1134071109_2" function="internal">
        <lane id=":1134071109_2_0" index="0" disallow="pedestrian" speed="13.89" length="14.47" shape="4550.56,3088.23 4565.01,3088.91"/>
    </edge>
    <edge id=":1134071109_3" function="internal">
        <lane id=":1134071109_3_0" index="0" disallow="pedestrian" speed="7.91" length="6.05" shape="4550.56,3088.23 4554.65,3089.02 4556.19,3090.10"/>
    </edge>
    <edge id=":1134071109_6" function="internal">
        <lane id=":1134071109_6_0" index="0" disallow="pedestrian" speed="7.91" length="8.93" shape="4556.19,3090.10 4557.36,3090.93 4558.70,3093.97 4558.65,3098.14"/>
    </edge>
    <edge id=":1134071109_4" function="internal">
        <lane id=":1134071109_4_0" index="0" disallow="pedestrian" speed="6.39" length="9.40" shape="4555.49,3097.65 4555.52,3095.03 4554.68,3093.12 4552.98,3091.92 4550.41,3091.43"/>
    </edge>
    <edge id=":1134071109_5" function="internal">
        <lane id=":1134071109_5_0" index="0" disallow="pedestrian" speed="8.38" length="14.40" shape="4555.49,3097.65 4556.62,3093.68 4558.58,3090.90 4561.38,3089.31 4565.01,3088.91"/>
    </edge>
    <edge id=":1140872789_0" function="internal">
        <lane id=":1140872789_0_0" index="0" disallow="pedestrian tram rail_urban rail rail_electric rail_fast ship" speed="6.20" length="10.70" shape="4418.04,2457.05 4415.15,2455.79 4412.96,2455.97 4411.45,2457.57 4410.63,2460.61"/>
    </edge>
    <edge id=":1140872789_1" function="internal">
        <lane id=":1140872789_1_0" index="0" disallow="pedestrian" speed="13.89" length="15.40" shape="4418.04,2457.05 4404.90,2449.02"/>
    </edge>
    <edge id=":1140872789_2" function="internal">
        <lane id=":1140872789_2_0" index="0" disallow="pedestrian tram rail_urban rail rail_electric rail_fast ship" speed="8.89" length="12.03" shape="4407.45,2460.20 4407.72,2456.16 4407.38,2452.94 4406.44,2450.56 4404.90,2449.02"/>
    </edge>
    <edge id=":1243093942_0" function="internal">
        <lane id=":1243093942_0_0" index="0" disallow="pedestrian" speed="6.18" length="11.89" shape="4147.38,3299.26 4144.88,3296.60 4142.69,3295.93 4140.81,3297.24 4139.25,3300.55"/>
    </edge>
    <edge id=":1243093942_1" function="internal">
        <lane id=":1243093942_1_0" index="0" disallow="pedestrian" speed="13.89" length="16.87" shape="4147.38,3299.26 4137.37,3285.69"/>
    </edge>
    <edge id=":1243093942_2" function="internal">
        <lane id=":1243093942_2_0" index="0" disallow="pedestrian" speed="13.89" length="16.94" shape="4139.91,3283.75 4149.97,3297.38"/>
    </edge>
    <edge id=":1243093942_3" function="internal">
        <lane id=":1243093942_3_0" index="0" disallow="pedestrian" speed="11.81" length="4.83" shape="4139.91,3283.75 4141.14,3286.46 4141.29,3288.30"/>
    </edge>
    <edge id=":1243093942_6" function="internal">
        <lane id=":1243093942_6_0" index="0" disallow="pedestrian" speed="11.81" length="12.50" shape="4141.29,3288.30 4141.44,3290.16 4140.81,3294.86 4139.25,3300.55"/>
    </edge>
    <edge id=":1243093942_4" function="internal">
        <lane id=":1243093942_4_0" index="0" disallow="pedestrian" speed="10.76" length="14.27" shape="4136.21,3299.55 4137.60,3294.65 4138.26,3290.70 4138.18,3287.72 4137.37,3285.69"/>
    </edge>
    <edge id=":1243093942_5" function="internal">
        <lane id=":1243093942_5_0" index="0" disallow="pedestrian" speed="7.85" length="20.12" shape="4136.21,3299.55 4138.85,3293.96 4142.03,3291.74 4145.73,3292.87 4149.97,3297.38"/>
    </edge>
    <edge id=":1710611042_0" function="internal">
        <lane id=":1710611042_0_0" index="0" disallow="pedestrian" speed="6.19" length="10.83" shape="3241.05,2335.90 3238.44,2334.03 3236.25,2333.75 3234.46,2335.06 3233.08,2337.95"/>
    </edge>
    <edge id=":1710611042_1" function="internal">
        <lane id=":1710611042_1_0" index="0" disallow="pedestrian" speed="13.89" length="16.08" shape="3241.05,2335.90 3237.61,2332.58 3235.19,2330.36 3232.55,2328.43 3228.46,2326.01"/>
    </edge>
    <edge id=":1710611042_2" function="internal">
        <lane id=":1710611042_2_0" index="0" disallow="pedestrian" speed="7.88" length="6.94" shape="3241.05,2335.90 3237.71,2331.78 3237.36,2330.18"/>
    </edge>
    <edge id=":1710611042_12" function="internal">
        <lane id=":1710611042_12_0" index="0" disallow="pedestrian" speed="7.88" length="10.77" shape="3237.36,2330.18 3236.89,2328.12 3238.59,2324.91 3242.81,2322.16"/>
    </edge>
    <edge id=":1710611042_3" function="internal">
        <lane id=":1710611042_3_0" index="0" disallow="pedestrian" speed="6.32" length="10.93" shape="3244.15,2325.07 3241.60,2326.75 3240.60,2328.73 3241.15,2331.00 3243.25,2333.57"/>
    </edge>
    <edge id=":1710611042_4" function="internal">
        <lane id=":1710611042_4_0" index="0" disallow="pedestrian" speed="13.17" length="17.48" shape="3244.15,2325.07 3240.40,2327.28 3237.30,2330.17 3234.87,2333.72 3233.08,2337.95"/>
    </edge>
    <edge id=":1710611042_5" function="internal">
        <lane id=":1710611042_5_0" index="0" disallow="pedestrian" speed="11.65" length="16.29" shape="3244.15,2325.07 3239.59,2326.78 3235.46,2327.50 3231.75,2327.25 3228.46,2326.01"/>
    </edge>
    <edge id=":1710611042_6" function="internal">
        <lane id=":1710611042_6_0" index="0" disallow="pedestrian" speed="10.56" length="13.28" shape="3230.03,2323.22 3232.60,2324.15 3235.58,2324.28 3238.99,2323.62 3242.81,2322.16"/>
    </edge>
    <edge id=":1710611042_7" function="internal">
        <lane id=":1710611042_7_0" index="0" disallow="pedestrian" speed="13.89" length="16.87" shape="3230.03,2323.22 3234.32,2325.76 3237.09,2327.77 3239.64,2330.10 3243.25,2333.57"/>
    </edge>
    <edge id=":1710611042_8" function="internal">
        <lane id=":1710611042_8_0" index="0" disallow="pedestrian" speed="9.26" length="5.17" shape="3230.03,2323.22 3232.68,2325.53 3233.34,2327.04"/>
    </edge>
    <edge id=":1710611042_13" function="internal">
        <lane id=":1710611042_13_0" index="0" disallow="pedestrian" speed="9.26" length="11.19" shape="3233.34,2327.04 3234.08,2328.75 3234.21,2332.89 3233.08,2337.95"/>
    </edge>
    <edge id=":1710611042_9" function="internal">
        <lane id=":1710611042_9_0" index="0" disallow="pedestrian" speed="8.00" length="11.96" shape="3230.03,2336.98 3230.96,2333.09 3231.00,2329.96 3230.17,2327.60 3228.46,2326.01"/>
    </edge>
    <edge id=":1710611042_10" function="internal">
        <lane id=":1710611042_10_0" index="0" disallow="pedestrian" speed="13.89" length="20.14" shape="3230.03,2336.98 3232.08,2332.13 3234.90,2328.04 3238.47,2324.72 3242.81,2322.16"/>
    </edge>
    <edge id=":1710611042_11" function="internal">
        <lane id=":1710611042_11_0" index="0" disallow="pedestrian" speed="7.79" length="17.97" shape="3230.03,2336.98 3232.32,2332.18 3235.28,2330.02 3238.93,2330.48 3243.25,2333.57"/>
    </edge>
    <edge id=":1782416744_0" function="internal">
        <lane id=":1782416744_0_0" index="0" disallow="pedestrian" speed="6.53" length="8.82" shape="3976.01,3309.84 3974.10,3308.30 3972.17,3307.70 3970.21,3308.03 3968.23,3309.30"/>
    </edge>
    <edge id=":1782416744_1" function="internal">
        <lane id=":1782416744_1_0" index="0" disallow="pedestrian" speed="6.77" length="10.32" shape="3976.01,3309.84 3973.57,3306.90 3972.25,3304.45 3972.04,3302.48 3972.96,3301.01"/>
    </edge>
    <edge id=":1782416744_2" function="internal">
        <lane id=":1782416744_2_0" index="0" disallow="pedestrian" speed="13.89" length="8.95" shape="3975.01,3303.46 3968.23,3309.30"/>
    </edge>
    <edge id=":1782416744_3" function="internal">
        <lane id=":1782416744_3_0" index="0" disallow="pedestrian" speed="13.89" length="9.01" shape="3966.13,3306.88 3972.96,3301.01"/>
    </edge>
    <edge id=":1784920920_0" function="internal">
        <lane id=":1784920920_0_0" index="0" disallow="pedestrian" speed="13.89" length="10.41" shape="3440.74,2911.04 3439.53,2908.23 3438.40,2906.44 3436.93,2904.87 3434.72,2902.72"/>
    </edge>
    <edge id=":1784920920_1" function="internal">
        <lane id=":1784920920_1_0" index="0" disallow="pedestrian" speed="8.63" length="9.73" shape="3440.74,2911.04 3440.10,2908.60 3440.11,2906.25 3440.76,2904.00 3442.06,2901.85"/>
    </edge>
    <edge id=":1784920920_2" function="internal">
        <lane id=":1784920920_2_0" index="0" disallow="pedestrian" speed="7.13" length="6.44" shape="3444.60,2903.80 3443.74,2905.23 3443.30,2906.72 3443.30,2908.27 3443.72,2909.88"/>
    </edge>
    <edge id=":1784920920_3" function="internal">
        <lane id=":1784920920_3_0" index="0" disallow="pedestrian" speed="6.99" length="3.34" shape="3444.60,2903.80 3442.55,2905.59 3441.93,2905.70"/>
    </edge>
    <edge id=":1784920920_4" function="internal">
        <lane id=":1784920920_4_0" index="0" disallow="pedestrian" speed="6.99" length="8.23" shape="3441.93,2905.70 3440.22,2906.00 3437.61,2905.05 3434.72,2902.72"/>
    </edge>
    <edge id=":1784920936_0" function="internal">
        <lane id=":1784920936_0_0" index="0" disallow="pedestrian" speed="13.89" length="13.61" shape="3315.40,2614.70 3313.87,2618.44 3312.89,2621.02 3312.07,2623.66 3311.02,2627.56"/>
    </edge>
    <edge id=":1784920936_1" function="internal">
        <lane id=":1784920936_1_0" index="0" disallow="pedestrian" speed="7.94" length="5.92" shape="3315.40,2614.70 3313.34,2618.20 3311.84,2619.29"/>
    </edge>
    <edge id=":1784920936_6" function="internal">
        <lane id=":1784920936_6_0" index="0" disallow="pedestrian" speed="7.94" length="8.76" shape="3311.84,2619.29 3310.69,2620.12 3307.43,2620.46 3303.56,2619.21"/>
    </edge>
    <edge id=":1784920936_2" function="internal">
        <lane id=":1784920936_2_0" index="0" disallow="pedestrian" speed="6.43" length="9.26" shape="3304.97,2616.34 3307.40,2617.12 3309.46,2616.91 3311.14,2615.70 3312.43,2613.49"/>
    </edge>
    <edge id=":1784920936_3" function="internal">
        <lane id=":1784920936_3_0" index="0" disallow="pedestrian" speed="8.58" length="13.97" shape="3304.97,2616.34 3308.33,2618.50 3310.47,2621.09 3311.36,2624.11 3311.02,2627.56"/>
    </edge>
    <edge id=":1784920936_4" function="internal">
        <lane id=":1784920936_4_0" index="0" disallow="pedestrian" speed="7.18" length="9.53" shape="3307.92,2626.75 3308.12,2624.48 3307.46,2622.47 3305.94,2620.71 3303.56,2619.21"/>
    </edge>
    <edge id=":1784920936_5" function="internal">
        <lane id=":1784920936_5_0" index="0" disallow="pedestrian" speed="13.89" length="14.02" shape="3307.92,2626.75 3309.01,2622.73 3309.85,2620.01 3310.86,2617.34 3312.43,2613.49"/>
    </edge>
    <edge id=":1784935329_0" function="internal">
        <lane id=":1784935329_0_0" index="0" disallow="pedestrian" speed="6.27" length="9.99" shape="3750.30,2464.61 3748.10,2462.79 3746.02,2462.29 3744.04,2463.12 3742.18,2465.28"/>
    </edge>
    <edge id=":1784935329_1" function="internal">
        <lane id=":1784935329_1_0" index="0" disallow="pedestrian" speed="13.89" length="16.50" shape="3739.85,2452.33 3744.16,2454.62 3746.94,2456.51 3749.38,2458.84 3752.67,2462.46"/>
    </edge>
    <edge id=":1784935329_2" function="internal">
        <lane id=":1784935329_2_0" index="0" disallow="pedestrian" speed="8.01" length="11.02" shape="3739.85,2452.33 3743.01,2454.66 3744.45,2457.60 3744.17,2461.14 3744.05,2461.38"/>
    </edge>
    <edge id=":1784935329_4" function="internal">
        <lane id=":1784935329_4_0" index="0" disallow="pedestrian" speed="8.01" length="4.33" shape="3744.05,2461.38 3742.18,2465.28"/>
    </edge>
    <edge id=":1784935329_3" function="internal">
        <lane id=":1784935329_3_0" index="0" disallow="pedestrian" speed="7.82" length="16.22" shape="3739.49,2463.55 3742.51,2460.05 3745.72,2458.70 3749.11,2459.50 3752.67,2462.46"/>
    </edge>
    <edge id=":1798652263_0" function="internal">
        <lane id=":1798652263_0_0" index="0" disallow="pedestrian tram rail_urban rail rail_electric rail_fast ship" speed="5.49" length="3.76" shape="4419.55,2581.68 4420.32,2582.25 4421.16,2582.56 4422.07,2582.62 4423.05,2582.42"/>
    </edge>
    <edge id=":1798652264_0" function="internal">
        <lane id=":1798652264_0_0" index="0" disallow="pedestrian" speed="8.56" length="5.38" shape="4474.25,2568.37 4473.31,2566.96 4472.68,2565.46 4472.38,2563.86 4472.41,2562.17"/>
        <lane id=":1798652264_0_1" index="1" disallow="pedestrian" speed="6.86" length="5.38" shape="4476.73,2566.34 4476.14,2565.47 4475.76,2564.55 4475.57,2563.56 4475.59,2562.51"/>
    </edge>
    <edge id=":1798652264_2" function="internal">
        <lane id=":1798652264_2_0" index="0" disallow="pedestrian tram rail_urban rail rail_electric rail_fast ship" speed="7.16" length="7.63" shape="4468.24,2568.02 4469.88,2567.21 4471.12,2565.97 4471.96,2564.29 4472.41,2562.17"/>
    </edge>
    <edge id=":18121952_0" function="internal">
        <lane id=":18121952_0_0" index="0" disallow="pedestrian" speed="9.68" length="8.92" shape="4500.94,2596.70 4498.83,2596.71 4496.76,2597.18 4494.73,2598.13 4492.75,2599.56"/>
    </edge>
    <edge id=":18121952_1" function="internal">
        <lane id=":18121952_1_0" index="0" disallow="pedestrian" speed="11.80" length="11.38" shape="4500.94,2596.70 4497.46,2595.93 4495.35,2594.53 4493.65,2592.37 4491.40,2589.34"/>
        <lane id=":18121952_1_1" index="1" disallow="pedestrian" speed="10.62" length="11.38" shape="4501.29,2593.52 4498.53,2592.86 4496.93,2591.63 4495.65,2589.79 4493.87,2587.32"/>
    </edge>
    <edge id=":18121952_3" function="internal">
        <lane id=":18121952_3_0" index="0" disallow="pedestrian" speed="6.49" length="8.87" shape="4490.68,2597.12 4492.29,2595.30 4492.95,2593.40 4492.65,2591.42 4491.40,2589.34"/>
    </edge>
    <edge id=":18121958_0" function="internal">
        <lane id=":18121958_0_0" index="0" disallow="pedestrian" speed="7.62" length="8.45" shape="4479.20,2498.47 4479.08,2496.65 4478.30,2494.92 4476.88,2493.30 4474.80,2491.78"/>
    </edge>
    <edge id=":18121958_1" function="internal">
        <lane id=":18121958_1_0" index="0" disallow="pedestrian" speed="10.32" length="6.95" shape="4479.20,2498.47 4479.43,2496.09 4479.74,2494.42 4480.49,2492.96 4482.07,2491.23"/>
        <lane id=":18121958_1_1" index="1" disallow="pedestrian" speed="8.83" length="6.95" shape="4482.38,2498.81 4482.52,2497.09 4482.69,2495.86 4483.18,2494.79 4484.29,2493.54"/>
    </edge>
    <edge id=":18121969_0" function="internal">
        <lane id=":18121969_0_0" index="0" disallow="pedestrian" speed="6.19" length="10.75" shape="4052.73,2228.73 4049.83,2227.43 4047.63,2227.59 4046.12,2229.20 4045.31,2232.27"/>
    </edge>
    <edge id=":18121969_1" function="internal">
        <lane id=":18121969_1_0" index="0" disallow="pedestrian tram rail_urban rail rail_electric rail_fast ship" speed="20.84" length="19.68" shape="4052.73,2228.73 4048.03,2225.32 4045.22,2222.46 4042.45,2219.51 4037.92,2215.86"/>
    </edge>
    <edge id=":18121969_2" function="internal">
        <lane id=":18121969_2_0" index="0" disallow="pedestrian" speed="10.84" length="17.85" shape="4052.73,2228.73 4048.65,2225.60 4045.88,2222.13 4044.43,2218.30 4044.28,2214.13"/>
    </edge>
    <edge id=":18121969_3" function="internal">
        <lane id=":18121969_3_0" index="0" disallow="pedestrian" speed="9.72" length="14.22" shape="4047.46,2214.50 4047.60,2217.73 4048.81,2220.72 4051.08,2223.48 4054.42,2226.01"/>
    </edge>
    <edge id=":18121969_4" function="internal">
        <lane id=":18121969_4_0" index="0" disallow="pedestrian" speed="13.89" length="17.90" shape="4047.46,2214.50 4045.31,2232.27"/>
    </edge>
    <edge id=":18121969_5" function="internal">
        <lane id=":18121969_5_0" index="0" disallow="pedestrian tram rail_urban rail rail_electric rail_fast ship" speed="6.54" length="4.34" shape="4047.46,2214.50 4046.54,2217.37 4045.42,2218.07"/>
    </edge>
    <edge id=":18121969_9" function="internal">
        <lane id=":18121969_9_0" index="0" disallow="pedestrian tram rail_urban rail rail_electric rail_fast ship" speed="6.54" length="8.26" shape="4045.42,2218.07 4044.64,2218.55 4041.77,2218.05 4037.92,2215.86"/>
    </edge>
    <edge id=":18121969_6" function="internal">
        <lane id=":18121969_6_0" index="0" disallow="pedestrian tram rail_urban rail rail_electric rail_fast ship" speed="10.97" length="17.34" shape="4042.13,2231.87 4042.43,2226.36 4041.83,2221.86 4040.32,2218.36 4037.92,2215.86"/>
    </edge>
    <edge id=":18121969_7" function="internal">
        <lane id=":18121969_7_0" index="0" disallow="pedestrian" speed="13.89" length="17.87" shape="4042.13,2231.87 4044.28,2214.13"/>
    </edge>
    <edge id=":18121969_8" function="internal">
        <lane id=":18121969_8_0" index="0" disallow="pedestrian" speed="7.78" length="6.71" shape="4042.13,2231.87 4043.48,2226.80 4044.49,2225.73"/>
    </edge>
    <edge id=":18121969_10" function="internal">
        <lane id=":18121969_10_0" index="0" disallow="pedestrian" speed="7.78" length="11.09" shape="4044.49,2225.73 4045.98,2224.13 4049.63,2223.87 4054.42,2226.01"/>
    </edge>
    <edge id=":18122239_0" function="internal">
        <lane id=":18122239_0_0" index="0" disallow="pedestrian" speed="13.89" length="61.27" shape="4559.33,3630.50 4551.01,3624.49 4535.74,3614.07 4519.57,3603.30 4508.57,3596.19"/>
    </edge>
    <edge id=":18122239_1" function="internal">
        <lane id=":18122239_1_0" index="0" disallow="pedestrian" speed="13.89" length="62.22" shape="4515.41,3586.24 4561.44,3628.10"/>
    </edge>
    <edge id=":18122239_2" function="internal">
        <lane id=":18122239_2_0" index="0" disallow="pedestrian" speed="5.42" length="9.16" shape="4513.41,3588.74 4514.87,3591.57 4514.02,3594.59 4511.83,3596.40"/>
    </edge>
    <edge id=":18122239_4" function="internal">
        <lane id=":18122239_4_0" index="0" disallow="pedestrian" speed="5.42" length="3.34" shape="4511.83,3596.40 4511.65,3596.55 4508.57,3596.19"/>
    </edge>
    <edge id=":18122239_3" function="internal">
        <lane id=":18122239_3_0" index="0" disallow="pedestrian" speed="13.89" length="61.82" shape="4510.25,3593.47 4521.31,3600.62 4537.63,3611.51 4553.06,3622.03 4561.44,3628.10"/>
    </edge>
    <edge id=":18122258_0" function="internal">
        <lane id=":18122258_0_0" index="0" disallow="pedestrian" speed="6.18" length="11.06" shape="4190.44,3414.45 4187.74,3412.56 4185.53,3412.31 4183.79,3413.72 4182.55,3416.77"/>
    </edge>
    <edge id=":18122258_1" function="internal">
        <lane id=":18122258_1_0" index="0" disallow="pedestrian" speed="10.84" length="16.07" shape="4190.44,3414.45 4186.79,3410.65 4184.37,3407.11 4183.17,3403.83 4183.20,3400.81"/>
    </edge>
    <edge id=":18122258_2" function="internal">
        <lane id=":18122258_2_0" index="0" disallow="pedestrian" speed="9.70" length="12.76" shape="4186.32,3401.50 4186.38,3403.66 4187.45,3406.14 4189.53,3408.95 4192.61,3412.10"/>
    </edge>
    <edge id=":18122258_3" function="internal">
        <lane id=":18122258_3_0" index="0" disallow="pedestrian" speed="13.89" length="15.73" shape="4186.32,3401.50 4182.55,3416.77"/>
    </edge>
    <edge id=":18122258_4" function="internal">
        <lane id=":18122258_4_0" index="0" disallow="pedestrian" speed="13.89" length="15.61" shape="4179.45,3415.97 4183.20,3400.81"/>
    </edge>
    <edge id=":18122258_5" function="internal">
        <lane id=":18122258_5_0" index="0" disallow="pedestrian" speed="7.79" length="6.83" shape="4179.45,3415.97 4181.53,3410.88 4182.56,3410.04"/>
    </edge>
    <edge id=":18122258_6" function="internal">
        <lane id=":18122258_6_0" index="0" disallow="pedestrian" speed="7.79" length="11.60" shape="4182.56,3410.04 4184.42,3408.54 4188.11,3408.94 4192.61,3412.10"/>
    </edge>
    <edge id=":197621530_0" function="internal">
        <lane id=":197621530_0_0" index="0" disallow="pedestrian" speed="6.19" length="10.76" shape="4347.08,2413.65 4344.17,2412.38 4341.97,2412.56 4340.48,2414.19 4339.69,2417.26"/>
    </edge>
    <edge id=":197621530_1" function="internal">
        <lane id=":197621530_1_0" index="0" disallow="pedestrian" speed="13.89" length="17.94" shape="4347.08,2413.65 4331.83,2404.20"/>
    </edge>
    <edge id=":197621530_2" function="internal">
        <lane id=":197621530_2_0" index="0" disallow="pedestrian" speed="9.96" length="15.09" shape="4347.08,2413.65 4342.95,2410.76 4340.09,2407.91 4338.50,2405.10 4338.18,2402.34"/>
    </edge>
    <edge id=":197621530_3" function="internal">
        <lane id=":197621530_3_0" index="0" disallow="pedestrian" speed="13.89" length="14.64" shape="4341.36,2402.71 4339.69,2417.26"/>
    </edge>
    <edge id=":197621530_4" function="internal">
        <lane id=":197621530_4_0" index="0" disallow="pedestrian" speed="6.56" length="4.15" shape="4341.36,2402.71 4340.46,2405.42 4339.36,2406.10"/>
    </edge>
    <edge id=":197621530_7" function="internal">
        <lane id=":197621530_7_0" index="0" disallow="pedestrian" speed="6.56" length="8.17" shape="4339.36,2406.10 4338.57,2406.58 4335.69,2406.17 4331.83,2404.20"/>
    </edge>
    <edge id=":197621530_5" function="internal">
        <lane id=":197621530_5_0" index="0" disallow="pedestrian" speed="9.79" length="14.29" shape="4336.51,2416.90 4336.61,2412.70 4335.86,2409.18 4334.26,2406.35 4331.83,2404.20"/>
    </edge>
    <edge id=":197621530_6" function="internal">
        <lane id=":197621530_6_0" index="0" disallow="pedestrian" speed="13.89" length="14.65" shape="4336.51,2416.90 4338.18,2402.34"/>
    </edge>
    <edge id=":197624056_0" function="internal">
        <lane id=":197624056_0_0" index="0" disallow="pedestrian" speed="6.98" length="9.20" shape="3995.22,3020.20 3993.42,3022.13 3992.50,3024.13 3992.47,3026.20 3993.31,3028.33"/>
    </edge>
    <edge id=":197624056_1" function="internal">
        <lane id=":197624056_1_0" index="0" disallow="pedestrian" speed="6.49" length="9.08" shape="3985.25,3017.04 3987.09,3018.72 3989.02,3019.40 3991.04,3019.08 3993.15,3017.76"/>
    </edge>
    <edge id=":197624056_2" function="internal">
        <lane id=":197624056_2_0" index="0" disallow="pedestrian" speed="13.89" length="13.66" shape="3985.25,3017.04 3987.87,3020.23 3989.61,3022.46 3991.18,3024.81 3993.31,3028.33"/>
        <lane id=":197624056_2_1" index="1" disallow="pedestrian" speed="13.89" length="13.66" shape="3982.78,3019.07 3985.31,3022.15 3986.98,3024.30 3988.50,3026.56 3990.56,3029.97"/>
    </edge>
    <edge id=":224820414_0" function="internal">