<?xml version="1.0" encoding="UTF-8"?>


<additional xmlns:xsi="http://www.w3.org/2001/XMLSchema-instance"
            xsi:noNamespaceSchemaLocation="http://sumo.dlr.de/xsd/additional_file.xsd">

    <parkingArea id="biblioteca" lane="-906615585_0" startPos="0" endPos="130" roadsideCapacity="1"/>
    <parkingArea id="terminal" lane="-587489968#0_0" startPos="0" endPos="180" roadsideCapacity="10"/>
    <parkingArea id="multipiano" lane="298563412_0" startPos="0" endPos="70" roadsideCapacity="10"/>

    <rerouter id="parkRerouter_biblio" edges="-906615585">
        <interval begin="0" end="3600">
            <parkingAreaReroute id="biblioteca"/>
            <parkingAreaReroute id="terminal"/>
        </interval>
    </rerouter>

    <rerouter id="parkRerouter_terminal" edges="-587489968#0">
        <interval begin="0" end="3600">
            <parkingAreaReroute id="terminal"/>
            <parkingAreaReroute id="multipiano"/>
        </interval>
    </rerouter>

    <rerouter id="parkRerouter_multipiano" edges="298563412">
        <interval begin="0" end="3600">
            <parkingAreaReroute id="multipiano"/>
            <parkingAreaReroute id="biblioteca"/>
        </interval>
    </rerouter>

    <!-- LINEA 47: NAVETTA UNIVERSITARIA INTRACAMPUS ref: https://appassets.mvtdev.com/map/77/l/882/20395489.pdf     -->
    <busStop id="mensa" lane="-442062982#1_0" startPos="36" endPos="46" /> <!-- la fermata di a/r di mensa è uguale -->
    <busStop id="giurisprudenza" lane="79396183#2_0" startPos="62" endPos="72" />
    <busStop id="poste_banca" lane="892584574#1_0" startPos="6" endPos="16" />
    <busStop id="impianti_sportivi" lane="292874238#1_0" startPos="24" endPos="34" />
    <busStop id="scienze" lane="906615576#0_0" startPos="34" endPos="44" />
    <busStop id="farmacia" lane="79262633#4_0" startPos="64" endPos="74" />
    <busStop id="biblioteca" lane="79262633#9_0" startPos="67" endPos="77" />
    <busStop id="lingue" lane="79262633#15_0" startPos="142" endPos="152" />
    <busStop id="rettorato" lane="443232854_0" startPos="14" endPos="24" />
    <busStop id="multipiano" lane="-122726134#1_0" startPos="7" endPos="17" /> 

    <vType id="BUS" accel="2.6" decel="4.5" sigma="0" length="10" minGap="3" maxSpeed="70" color="1,1,0" guiShape="bus"/>

    <route id="route47" edges="-442062982#1 442062984#1 82534335#1 442062984#0 442062982#0 442062982#2 442062982#3
        79396183#2 443232854 442062982#8 442062982#10 906498862 79396163#0 79396163#1 79396163#2 892584574#0
        892584574#1 292874238#0 292874238#1 292874238#2 292874238#3 906615576#0 79262633#1 79262633#4 79262633#9
        79262633#15 444635707 79262674 443232854 442062982#8 442062982#10 906498862 79396163#0 79396163#1
        79396145 758800287 442156760#2 442156759#1 442156758 -122726134#1 -122726134#0 
        122726134#0 122726134#1 442156756 442156759#0 442156757 -84678509#2 442156982
        906498861 79262635#0 -442062982#10 -442062982#9 -442062982#7 -442062982#4 -442062982#2" repeat="200" > 

        <stop busStop="mensa" duration="20"/>
        <stop busStop="giurisprudenza" duration="20"/>
        <stop busStop="poste_banca" duration="20"/>
        <stop busStop="impianti_sportivi" duration="20"/>
        <stop busStop="scienze" duration="20"/>
        <stop busStop="farmacia" duration="20"/>
        <stop busStop="biblioteca" duration="20"/>
        <stop busStop="lingue" duration="20"/>
        <stop busStop="rettorato" duration="20"/>
        <stop busStop="multipiano" duration="20"/>
        </route>

    <vehicle id="47" type="BUS" depart="0" color="1,1,0" route="route47"/>

    <poly id="1006193848" type="landuse.recreation_ground" color="194,194,130" fill="1" layer="-3.00" shape="1286.900794,1855.514381 1285.652086,1844.960690 1283.599647,1837.117448 1281.864613,1831.449167 1278.816368,1827.171576 1278.592315,1825.218405 1278.899873,1823.241772 1281.423468,1819.805704 1292.874128,1797.910399 1312.639988,1809.141747 1320.169094,1795.459104 1326.016232,1798.509023 1287.829024,1866.157637 1286.900794,1855.514381"/>
    <poly id="1006193851" type="landuse.recreation_ground" color="194,194,130" fill="1" layer="-3.00" shape="1249.240623,1846.390324 1270.407265,1832.719626 1273.257942,1831.980220 1275.714115,1832.140898 1277.193250,1833.103138 1278.574355,1835.430983 1282.219030,1856.335830 1282.219625,1860.143328 1281.680120,1863.952108 1249.240623,1846.390324"/>
    <poly id="1006193855" type="building.yes" color="255,230,230" fill="1" layer="-1.00" shape="1281.036172,1773.950124 1286.554267,1777.022994 1289.520629,1771.676579 1283.942798,1768.326334 1281.036172,1773.950124"/>
    <poly id="1006193856" type="landuse.recreation_ground" color="194,194,130" fill="1" layer="-3.00" shape="1271.464745,1812.480755 1275.688996,1814.446631 1275.390516,1802.469813 1271.464745,1812.480755"/>
    <poly id="1006193857" type="landuse.recreation_ground" color="194,194,130" fill="1" layer="-3.00" shape="1265.272884,1809.975626 1269.159046,1811.720289 1272.967035,1801.865033 1265.272884,1809.975626"/>
    <poly id="1006193858" type="landuse.recreation_ground" color="194,194,130" fill="1" layer="-3.00" shape="1264.552022,1812.042046 1268.717044,1813.941455 1266.093973,1821.684789 1264.041373,1817.338236 1264.454362,1817.115243 1264.664945,1816.948235 1264.841665,1816.736904 1264.967593,1816.459090 1265.034341,1816.137015 1264.957836,1815.904084 1264.813922,1815.715716 1264.619480,1815.571870 1264.382947,1815.472527 1263.293378,1815.086594 1264.552022,1812.042046"/>
    <poly id="1006193859" type="landuse.recreation_ground" color="194,194,130" fill="1" layer="-3.00" shape="1267.672957,1822.047359 1270.507692,1814.592138 1275.331226,1816.600993 1267.672957,1822.047359"/>
    <poly id="1006193860" type="landuse.recreation_ground" color="194,194,130" fill="1" layer="-3.00" shape="1214.903689,1953.481647 1210.555454,1952.581757 1210.430721,1953.359095 1210.670741,1954.923706 1211.433579,1956.320562 1212.625958,1957.361177 1213.909976,1957.902047 1215.302694,1958.020836 1216.669092,1957.717866 1217.874224,1957.026760 1218.816955,1956.003261 1219.404669,1954.736395 1219.587048,1953.359488 1219.339067,1951.994707 1218.576256,1950.608950 1217.375438,1949.568355 1215.897244,1948.994645 1214.234635,1948.943102 1214.903689,1953.481647"/>
    <poly id="1009971321" type="building.yes" color="255,230,230" fill="1" layer="-1.00" shape="1019.366050,1870.495765 1031.038432,1856.924953 1037.554811,1864.513174 1033.107561,1871.594946 1055.348183,1883.618897 1054.589203,1883.842733 1032.281068,1871.818947 1036.846036,1864.559281 1031.015118,1857.757553 1020.066305,1870.416375 1019.366050,1870.495765"/>
    <poly id="1009971322" type="building.yes" color="255,230,230" fill="1" layer="-1.00" shape="1019.366050,1870.495765 1052.103814,1889.077082 1055.348183,1883.618897 1054.589203,1883.842733 1051.916341,1888.322693 1020.066305,1870.416375 1019.366050,1870.495765"/>
    <poly id="1009971323" type="landuse.recreation_ground" color="194,194,130" fill="1" layer="-3.00" shape="1195.964036,1835.627488 1208.495165,1842.291272 1247.842368,1772.952202 1213.463765,1752.853152 1202.115274,1746.730469 1179.994192,1784.869319 1220.476320,1805.830626 1209.384006,1825.727086 1202.911078,1822.145922 1195.964036,1835.627488"/>
    <poly id="1009971324" type="landuse.recreation_ground" color="194,194,130" fill="1" layer="-3.00" shape="1120.310970,2147.368387 1150.327868,2165.068607 1168.106430,2139.528075 1129.264135,2066.112853 1116.990156,2057.461581 1094.112452,2096.224159 1135.501178,2119.314142 1120.310970,2147.368387"/>
    <poly id="1026672596" type="landuse.recreation_ground" color="194,194,130" fill="1" layer="-3.00" shape="1301.472375,1626.441571 1296.682006,1609.990769 1336.921222,1599.349943 1316.760159,1635.285819 1301.472375,1626.441571"/>
    <poly id="1026672597" type="amenity.shelter" color="237,199,199" fill="1" layer="-1.00" shape="1350.761426,1542.027148 1359.522038,1524.345435 1367.381657,1521.807045 1351.365361,1551.172596 1348.162702,1549.437374 1330.687495,1539.976604 1339.675926,1536.569669 1350.761426,1542.027148"/>
    <poly id="1026672597#1" type="building.yes" color="255,230,230" fill="1" layer="-1.00" shape="1350.761426,1542.027148 1359.522038,1524.345435 1367.381657,1521.807045 1351.365361,1551.172596 1348.162702,1549.437374 1330.687495,1539.976604 1339.675926,1536.569669 1350.761426,1542.027148"/>
    <poly id="1026672598" type="amenity.shelter" color="237,199,199" fill="1" layer="-1.00" shape="1339.675926,1536.569669 1348.428105,1518.899063 1359.522038,1524.345435 1367.381657,1521.807045 1346.695295,1510.611029 1330.687495,1539.976604 1339.675926,1536.569669"/>
    <poly id="1026672598#1" type="building.yes" color="255,230,230" fill="1" layer="-1.00" shape="1339.675926,1536.569669 1348.428105,1518.899063 1359.522038,1524.345435 1367.381657,1521.807045 1346.695295,1510.611029 1330.687495,1539.976604 1339.675926,1536.569669"/>
    <poly id="323957995" type="building.university" color="255,230,230" fill="1" layer="-1.00" shape="862.947927,2357.091033 876.741185,2359.011237 882.050063,2321.189729 876.917649,2320.469548 879.878988,2299.360132 863.865520,2297.134498 860.954048,2317.910782 857.729416,2317.463494 856.319280,2327.512958 865.419179,2328.789616 864.946272,2332.120942 866.423528,2332.328265 862.947927,2357.091033"/>
    <poly id="323958122" type="landuse.industrial" color="209,209,204" fill="1" layer="-3.00" shape="614.147148,2457.072260 621.095154,2427.516458 636.585910,2378.569101 646.717357,2356.664907 663.000475,2341.583579 679.267159,2336.970190 697.863330,2342.852288 708.985249,2356.578663 723.086858,2394.807875 733.795045,2422.277839 731.136467,2435.882576 724.336995,2440.117448 702.840741,2445.576102 614.147148,2457.072260"/>
    <poly id="441754002" type="building.university" color="255,230,230" fill="1" layer="-1.00" shape="1566.097854,1767.551334 1578.771913,1766.844625 1584.667166,1772.469970 1592.632844,1764.825304 1583.331346,1756.954478 1578.987161,1761.438142 1576.102101,1761.933297 1575.840034,1747.270046 1578.952984,1746.785459 1584.678485,1751.989378 1591.168206,1744.725572 1582.092443,1735.955074 1578.483052,1740.692338 1566.710881,1740.941818 1561.780381,1736.479796 1553.143275,1745.713446 1560.230149,1752.046425 1564.524652,1747.973587 1564.475503,1752.225223 1571.497428,1752.430846 1571.739485,1762.132186 1567.047380,1762.176438 1561.541811,1757.194031 1552.964400,1766.682856 1560.448336,1773.203617 1566.097854,1767.551334"/>
    <poly id="441754003" type="building.university" color="255,230,230" fill="1" layer="-1.00" shape="1581.632014,1730.317055 1590.714356,1720.183254 1581.586788,1710.924452 1574.867090,1717.289656 1574.770567,1701.238447 1581.180746,1706.895890 1590.153769,1696.917752 1580.392269,1687.249708 1573.624453,1694.702882 1574.032290,1677.795752 1580.669807,1683.219552 1589.472597,1672.609077 1579.662422,1663.795893 1568.370074,1674.423289 1568.867893,1692.460564 1564.842962,1692.725272 1565.044855,1703.292550 1568.893152,1703.283567 1569.222242,1724.962226 1574.597948,1724.916381 1581.632014,1730.317055"/>
    <poly id="441754467" type="tourism.artwork" color="207,245,201" fill="1" layer="-2.00" shape="1330.687495,1539.976604 1346.695295,1510.611029 1367.381657,1521.807045 1351.365361,1551.172596 1348.162702,1549.437374 1330.687495,1539.976604"/>
    <poly id="441755617" type="leisure.park" color="207,245,201" fill="1" layer="-2.00" shape="1123.023590,1888.118807 1156.948220,1824.342518 1185.458852,1839.815261 1189.787405,1832.434149 1208.681380,1842.523940 1206.034680,1847.403402 1209.634648,1849.459533 1216.471091,1853.317352 1226.510189,1858.954748 1219.845706,1870.604024 1217.928950,1873.694550 1216.205579,1876.484900 1198.910549,1906.952808 1196.927489,1910.543024 1195.734285,1912.699383 1189.649992,1923.425956 1123.023590,1888.118807"/>
    <poly id="441756119" type="building.university" color="255,230,230" fill="1" layer="-1.00" shape="1040.582065,2270.476579 1027.696003,2256.354335 1019.746122,2263.089335 1011.822267,2263.108423 1010.944037,2276.864172 1007.114269,2280.936218 1017.140175,2291.779540 1040.582065,2270.476579"/>
    <poly id="441757000" type="building.university" color="255,230,230" fill="1" layer="-1.00" shape="1581.519823,1779.914697 1579.264446,1782.628498 1572.927702,1783.098405 1573.373520,1818.641417 1576.250869,1818.468195 1577.406992,1840.156030 1584.377085,1839.884460 1583.808334,1791.409559 1578.601381,1791.421703 1585.968500,1784.055940 1581.519823,1779.914697"/>
    <poly id="442063363" type="leisure.park" color="207,245,201" fill="1" layer="-2.00" shape="1270.380087,1913.687337 1269.012840,1910.082894 1269.235317,1907.817847 1288.890226,1868.819260 1312.821269,1882.116540 1312.014539,1883.561526 1314.853817,1885.142185 1315.694198,1883.652717 1321.279789,1886.758755 1323.926542,1889.005908 1335.419070,1895.505856 1312.561750,1936.443405 1270.380087,1913.687337"/>
    <poly id="444636899" type="amenity.parking" color="184,184,179" fill="1" layer="-1.00" shape="1148.752482,2166.182432 1115.363389,2227.371081 1107.074245,2222.873002 1099.226954,2237.244875 1096.472364,2235.752901 1092.710862,2240.168856 1081.723691,2247.199690 1075.388217,2244.506354 1126.046070,2153.049257 1148.752482,2166.182432"/>
    <poly id="444637147" type="leisure.park" color="207,245,201" fill="1" layer="-2.00" shape="1070.222215,2138.452627 1095.859382,2152.566555 1087.784698,2167.149895 1091.325208,2169.095105 1089.485117,2172.429696 1079.561921,2190.336557 1050.358993,2174.266452 1042.289371,2169.856723 1062.338992,2134.364344 1070.222215,2138.452627"/>
    <poly id="444641885" type="building.university" color="255,230,230" fill="1" layer="-1.00" shape="993.592236,1912.162870 1013.875550,1875.393247 1046.425833,1893.220150 1043.468161,1898.577744 1049.197373,1901.705433 1046.853108,1905.962594 1051.568297,1908.537694 1042.502060,1924.966158 1037.719259,1922.346824 1035.702686,1926.003768 1030.438220,1923.119183 1026.531108,1930.199660 993.592236,1912.162870"/>
    <poly id="444642070" type="building.office" color="255,230,230" fill="1" layer="-1.00" shape="1137.167385,1983.316871 1140.461055,1977.292475 1114.452055,1963.179284 1111.158401,1969.203692 1137.167385,1983.316871"/>
    <poly id="446565304" type="amenity.bus_station" color="237,199,199" fill="1" layer="-1.00" shape="1406.816344,2029.188136 1399.994343,2031.346624 1397.300301,2030.487128 1396.821157,2027.702011 1409.439033,2003.339799 1434.680586,2017.966455 1433.802180,2021.232093 1425.917361,2023.603968 1422.898306,2024.488020 1409.987191,2028.259317 1406.816344,2029.188136"/>
    <poly id="446565304#1" type="building.yes" color="255,230,230" fill="1" layer="-1.00" shape="1406.816344,2029.188136 1399.994343,2031.346624 1397.300301,2030.487128 1396.821157,2027.702011 1409.439033,2003.339799 1434.680586,2017.966455 1433.802180,2021.232093 1425.917361,2023.603968 1422.898306,2024.488020 1409.987191,2028.259317 1406.816344,2029.188136"/>
    <poly id="446565306" type="amenity.bus_station" color="237,199,199" fill="1" layer="-1.00" shape="1433.460014,2051.559692 1428.697492,2061.050796 1425.028687,2061.947476 1415.463532,2056.708317 1433.460014,2051.559692"/>
    <poly id="446565306#1" type="building.yes" color="255,230,230" fill="1" layer="-1.00" shape="1433.460014,2051.559692 1428.697492,2061.050796 1425.028687,2061.947476 1415.463532,2056.708317 1433.460014,2051.559692"/>
    <poly id="457259702" type="amenity.fuel" color="237,199,199" fill="1" layer="-1.00" shape="855.447204,2465.184655 847.967190,2422.077026 924.372995,2399.257510 937.991740,2444.181954 855.447204,2465.184655"/>
    <poly id="457261151" type="building.yes" color="255,230,230" fill="1" layer="-1.00" shape="1072.015084,1454.652436 1070.213146,1442.312922 1086.143386,1440.765012 1088.450473,1452.603793 1072.015084,1454.652436"/>
    <poly id="557412467" type="amenity.fountain" color="237,199,199" fill="1" layer="-1.00" shape="1280.635438,1757.999541 1270.469341,1752.229167 1280.579678,1734.499745 1290.449366,1739.826813 1280.635438,1757.999541"/>
    <poly id="557412470" type="amenity.fountain" color="237,199,199" fill="1" layer="-1.00" shape="1181.321682,1881.419016 1167.359888,1872.871595 1161.155315,1879.169345 1160.351828,1878.427526 1159.606620,1877.352550 1158.707094,1875.267789 1158.254148,1872.893347 1158.247730,1870.207021 1158.840511,1867.530364 1160.025459,1865.451724 1161.961458,1863.360189 1164.497719,1861.722345 1167.188005,1860.972181 1169.871629,1860.965772 1172.261661,1861.703805 1174.357729,1863.030871 1175.558223,1863.927152 1169.893284,1870.034897 1183.913121,1878.149261 1181.321682,1881.419016"/>
    <poly id="579677742" type="amenity.parking" color="184,184,179" fill="1" layer="-1.00" shape="1619.168576,1809.554338 1631.472820,1809.525714 1632.068381,1800.710471 1635.873580,1800.335304 1633.146548,1788.941351 1630.193982,1789.436642 1629.195785,1784.787822 1620.719576,1787.016555 1617.647553,1790.575889 1615.444196,1793.888989 1614.864622,1809.564355 1619.168576,1809.554338"/>
    <poly id="579677743" type="leisure.pitch" color="207,245,201" fill="1" layer="-2.00" shape="1612.227385,1851.253167 1629.147971,1854.943588 1636.822321,1820.014423 1619.901659,1816.323984 1612.227385,1851.253167"/>
    <poly id="579677743#1" type="sport.soccer" color="79,230,125" fill="1" layer="-2.00" shape="1612.227385,1851.253167 1629.147971,1854.943588 1636.822321,1820.014423 1619.901659,1816.323984 1612.227385,1851.253167"/>
    <poly id="579677744" type="leisure.park" color="207,245,201" fill="1" layer="-2.00" shape="1658.218801,1879.552619 1695.399176,1878.578338 1746.529664,1877.727414 1750.543311,1825.112505 1727.375601,1824.144791 1728.417388,1811.176908 1650.450678,1812.367757 1660.598332,1832.169825 1663.048723,1837.114995 1664.005393,1842.063632 1664.038002,1845.205020 1663.627926,1850.323339 1662.652278,1855.376366 1660.307622,1866.893110 1658.218801,1879.552619"/>
    <poly id="588793407" type="amenity.university" color="237,199,199" fill="1" layer="-2.00" shape="847.373914,2216.273465 819.278500,2159.628914 777.552573,2078.230115 769.462177,2058.513019 768.859608,2043.295582 769.627272,2032.814751 773.566278,2021.637941 808.948038,1958.189484 820.323597,1937.303771 825.052260,1928.056570 855.932131,1873.077959 935.033946,1730.931880 1010.204163,1595.012491 1024.634819,1573.664627 1098.549527,1479.465174 1147.526450,1420.370570 1156.108071,1412.690664 1163.684489,1408.165732 1177.819537,1404.069176 1201.574387,1399.383586 1219.112798,1396.189246 1280.966345,1395.931236 1299.140009,1397.242412 1305.196311,1374.449684 1323.749706,1372.152335 1335.859491,1371.668561 1356.347287,1373.662641 1361.901869,1374.204550 1380.928043,1379.121600 1392.373824,1383.379429 1408.919551,1392.243102 1426.608105,1406.188185 1437.840296,1420.137387 1452.058627,1447.844301 1460.933512,1467.893293 1490.504045,1531.974130 1520.424030,1594.133872 1525.075996,1602.137602 1535.637571,1614.623248 1543.231646,1621.254739 1562.500449,1632.820931 1575.196310,1641.360946 1583.245527,1647.769406 1591.990395,1659.360222 1593.588029,1664.096444 1595.415584,1673.338965 1599.579217,1710.871413 1604.359968,1770.614684 1602.830133,1794.972915 1599.382251,1818.314363 1592.311637,1844.261791 1584.324168,1864.239254 1542.744511,1943.594473 1510.168912,2000.827588 1492.139093,2035.026329 1466.261309,2022.510081 1461.775127,2020.333801 1456.253284,2029.926575 1460.216279,2032.115181 1461.930603,2036.229471 1446.711663,2063.428357 1365.597891,2078.050227 1355.767302,2081.914251 1338.015951,2090.747881 1336.540116,2087.587705 1308.265908,2096.568411 1296.969243,2104.931725 1280.260789,2122.898804 1262.879980,2141.988678 1256.588818,2147.298605 1235.660405,2164.942799 1210.002638,2181.010935 1186.014639,2193.034563 1175.192241,2198.455278 1138.320438,2207.790187 1136.737474,2209.259252 1130.849503,2206.675804 1126.675200,2214.922433 1124.014176,2213.741041 1113.532752,2231.127466 1109.978266,2233.900029 1105.446981,2234.021894 1086.035018,2257.401887 1072.775624,2270.521310 1065.024869,2272.338222 1053.318603,2275.074897 1053.850375,2285.663583 1019.871811,2318.780700 1012.298316,2324.093927 1002.004661,2324.684866 991.584969,2322.001449 960.987884,2305.058112 920.758093,2282.943147 885.283661,2262.737260 865.968080,2252.527209 847.373914,2216.273465"/>
    <poly id="620934330" type="amenity.school" color="237,199,199" fill="1" layer="-2.00" shape="1708.904439,1730.287749 1711.104484,1703.641274 1729.606929,1705.163652 1729.787357,1702.898718 1723.515765,1702.380393 1725.723900,1675.556296 1743.281008,1676.992091 1741.269760,1701.395802 1749.558716,1702.075991 1749.008720,1708.759807 1739.774396,1708.004099 1739.084636,1716.286723 1752.142664,1717.355516 1750.229824,1740.526835 1734.673344,1739.252909 1735.231482,1732.446965 1708.904439,1730.287749"/>
    <poly id="620934330#1" type="building.school" color="255,230,230" fill="1" layer="-1.00" shape="1708.904439,1730.287749 1711.104484,1703.641274 1729.606929,1705.163652 1729.787357,1702.898718 1723.515765,1702.380393 1725.723900,1675.556296 1743.281008,1676.992091 1741.269760,1701.395802 1749.558716,1702.075991 1749.008720,1708.759807 1739.774396,1708.004099 1739.084636,1716.286723 1752.142664,1717.355516 1750.229824,1740.526835 1734.673344,1739.252909 1735.231482,1732.446965 1708.904439,1730.287749"/>
    <poly id="620934331" type="amenity.school" color="237,199,199" fill="1" layer="-2.00" shape="1767.010823,1764.110126 1768.078364,1751.297599 1771.792350,1751.610948 1772.120880,1747.691687 1778.974863,1748.264213 1778.580479,1752.905163 1785.721440,1753.499234 1784.702841,1765.590109 1767.010823,1764.110126"/>
    <poly id="620934331#1" type="building.school" color="255,230,230" fill="1" layer="-1.00" shape="1767.010823,1764.110126 1768.078364,1751.297599 1771.792350,1751.610948 1772.120880,1747.691687 1778.974863,1748.264213 1778.580479,1752.905163 1785.721440,1753.499234 1784.702841,1765.590109 1767.010823,1764.110126"/>
    <poly id="641498998" type="building.yes" color="255,230,230" fill="1" layer="-1.00" shape="972.580750,1926.877446 975.512881,1921.453281 969.504603,1918.093210 966.572716,1923.617282 972.580750,1926.877446"/>
    <poly id="641499002" type="landuse.grass" color="194,194,130" fill="1" layer="-3.00" shape="968.990634,1939.396475 975.863786,1926.980525 1002.267697,1940.215333 995.050978,1953.653341 968.990634,1939.396475"/>
    <poly id="641499004" type="landuse.grass" color="194,194,130" fill="1" layer="-3.00" shape="1002.757106,1957.697576 1009.974102,1944.370581 1038.755753,1960.308332 1031.546064,1973.180158 1002.757106,1957.697576"/>
    <poly id="642066802" type="building.university" color="255,230,230" fill="1" layer="-1.00" shape="1500.438094,1705.197537 1501.422403,1693.073400 1471.828606,1690.689567 1470.803347,1703.324431 1488.461687,1704.748283 1488.068030,1709.622359 1503.270038,1710.841096 1503.704706,1705.456297 1500.438094,1705.197537"/>
    <poly id="642069118" type="landuse.orchard" color="194,194,130" fill="1" layer="-3.00" shape="1142.057626,2306.088072 1127.418919,2240.063488 1140.072162,2231.008429 1162.906599,2220.130767 1184.389469,2212.186956 1188.280534,2230.216130 1199.968120,2290.386754 1142.057626,2306.088072"/>
    <poly id="642070507" type="landuse.recreation_ground" color="194,194,130" fill="1" layer="-3.00" shape="912.432873,1929.198633 923.927990,1908.756816 968.580732,1933.902675 965.791698,1939.171089 932.857217,1999.715610 958.698546,2014.194890 960.900980,2010.648481 964.357799,2012.838045 960.239906,2019.952370 928.907563,2003.110848 926.825086,2007.400716 957.483110,2024.576876 957.200132,2026.209346 953.931440,2032.022854 950.306547,2030.122315 952.053112,2026.510402 926.152580,2011.964685 891.956669,2074.055434 917.967564,2088.933782 920.279097,2085.153984 923.794831,2087.287884 920.804539,2093.045230 920.467793,2093.379063 888.453927,2077.283102 886.320162,2081.284491 916.631583,2098.294815 916.971581,2099.304145 913.485589,2105.961842 909.632874,2104.061876 911.093424,2100.839166 885.369503,2085.971246 851.449440,2146.696151 877.858158,2162.139522 880.279081,2158.248439 883.735424,2160.260358 880.575880,2165.796120 880.080226,2170.193157 883.662814,2175.546048 911.480327,2190.864013 909.565048,2194.476346 908.567749,2193.846029 882.760862,2179.433443 857.415670,2226.561503 882.233237,2240.199361 884.711834,2235.742008 887.483667,2237.367070 878.748363,2250.753382 877.619501,2251.544264 875.411842,2252.892795 873.042099,2253.520182 871.911755,2253.700536 870.662839,2253.703569 865.968080,2252.527209 863.750580,2249.824051 838.960387,2198.877100 780.054244,2083.230375 771.462246,2065.446004 770.432880,2062.062837 769.058395,2055.583450 768.969647,2039.976237 769.234629,2034.447497 771.261007,2027.959804 775.254798,2018.481251 805.845749,1962.992498 826.209759,1984.078417 833.423065,1993.651769 839.556955,2003.549670 844.268883,2011.719343 846.600943,2016.387020 847.467388,2022.190521 841.923310,2022.315009 818.101715,2022.939117 819.664534,2061.720769 834.550918,2061.795537 844.735627,2061.371141 845.253349,2066.054331 840.531636,2078.132155 831.259495,2082.495046 827.370427,2089.941907 829.313406,2090.780822 816.012556,2114.535169 839.698591,2127.687215 852.991055,2103.932930 837.290605,2095.268249 852.042780,2064.461539 853.722642,2061.204983 859.545145,2061.068727 858.640661,2022.241065 852.818127,2022.377323 852.095769,2016.828785 837.312771,1989.912507 808.948038,1958.189484 820.323597,1937.303771 824.509332,1937.293580 833.008294,1941.113697 844.680005,1944.804001 853.511003,1946.358814 864.032217,1945.434101 875.572070,1943.485676 885.065333,1939.743940 897.047528,1932.277483 902.469939,1927.191369 907.896750,1927.400229 912.432873,1929.198633"/>
    <poly id="642071856" type="landuse.grass" color="194,194,130" fill="1" layer="-3.00" shape="702.420308,2270.620648 698.687392,2224.640040 700.711148,2220.572261 704.106405,2218.310518 758.636288,2210.961681 758.153039,2199.684660 767.867984,2193.577801 780.704696,2259.839199 818.144754,2251.966398 829.825873,2259.719472 842.259681,2254.283229 838.498578,2244.923479 827.757922,2249.123440 824.138291,2249.354264 820.517039,2248.919058 816.324883,2246.220724 813.600504,2243.296804 805.232184,2199.458757 804.652777,2193.710062 804.980449,2189.657548 806.896491,2186.378203 810.735747,2182.761155 813.803754,2188.170769 819.230867,2185.115988 852.788867,2253.347377 860.966932,2267.647266 866.526708,2274.061001 872.766712,2279.118817 873.841837,2280.525982 874.039536,2282.012981 873.654380,2283.257183 872.263711,2283.959897 870.795532,2284.018965 869.604747,2283.633336 857.868140,2273.848926 849.897247,2323.931977 849.301652,2356.624675 840.483186,2360.020703 835.289272,2365.228418 828.973364,2374.035461 829.933889,2397.699591 817.269763,2402.015258 797.813811,2406.802630 788.760440,2407.268736 778.799225,2405.716760 766.339851,2400.563207 755.673618,2390.221313 749.997781,2381.210404 727.027022,2335.953972 741.490974,2329.147215 743.075220,2328.244192 736.359980,2266.929837 702.420308,2270.620648"/>
    <poly id="642073575" type="landuse.recreation_ground" color="194,194,130" fill="1" layer="-3.00" shape="1452.058627,1447.844301 1460.933512,1467.893293 1490.504045,1531.974130 1520.424030,1594.133872 1525.075996,1602.137602 1535.637571,1614.623248 1543.231646,1621.254739 1562.500449,1632.820931 1575.196310,1641.360946 1583.245527,1647.769406 1591.990395,1659.360222 1593.588029,1664.096444 1587.346427,1658.360894 1581.795751,1655.776302 1575.911202,1654.779875 1570.479970,1656.368829 1565.736547,1659.765575 1562.127130,1664.502846 1560.437400,1670.934025 1556.217118,1703.191055 1549.926135,1723.275594 1548.800025,1725.309631 1546.196508,1727.114008 1529.899332,1773.608030 1518.528127,1800.919860 1495.107914,1850.694212 1476.187241,1890.190047 1445.529123,1897.821545 1444.704280,1902.341420 1426.826893,1933.154279 1422.204966,1916.358876 1406.594333,1920.624958 1430.600458,1876.321524 1477.760308,1790.924970 1487.912234,1776.348300 1499.484403,1762.800670 1523.588912,1738.445061 1529.798456,1730.482520 1535.370580,1720.601075 1538.861808,1712.256379 1542.739519,1699.559355 1545.298494,1682.303078 1544.287022,1661.169944 1541.599635,1648.765781 1536.759590,1636.100238 1518.864344,1605.637718 1511.474086,1592.356530 1512.263826,1590.833902 1504.828028,1579.739640 1502.957266,1580.931783 1432.575409,1467.393809 1431.095001,1462.324329 1430.411483,1458.773753 1431.136427,1454.820244 1434.847616,1446.696996 1437.052667,1444.094276 1440.780570,1443.075359 1444.976876,1443.853636 1447.638123,1445.035143 1450.471316,1447.559416 1452.058627,1447.844301"/>
    <poly id="642073576" type="landuse.recreation_ground" color="194,194,130" fill="1" layer="-3.00" shape="1305.196311,1374.449684 1331.461586,1378.450313 1331.804144,1376.984227 1344.491893,1381.794074 1365.229595,1393.134270 1378.720228,1402.016189 1391.649327,1412.575644 1413.782546,1439.586695 1416.844562,1442.510037 1419.107169,1442.848829 1423.060274,1440.697114 1431.636260,1426.923327 1433.615805,1421.734703 1434.776688,1416.536905 1426.608105,1406.188185 1408.919551,1392.243102 1392.373824,1383.379429 1380.928043,1379.121600 1361.901869,1374.204550 1356.347287,1373.662641 1335.859491,1371.668561 1323.749706,1372.152335 1305.196311,1374.449684"/>
    <poly id="642073577" type="landuse.recreation_ground" color="194,194,130" fill="1" layer="-3.00" shape="1470.541548,1559.417173 1408.545319,1523.597074 1405.027080,1520.452798 1403.891407,1518.424068 1402.983338,1516.283797 1402.858220,1509.745853 1412.544594,1490.896463 1416.383436,1486.824614 1425.318457,1485.782331 1429.398467,1487.360114 1432.459647,1489.939347 1474.267000,1557.377026 1470.541548,1559.417173"/>