<?xml version="1.0" encoding="UTF-8"?>

<!-- generated on 2022-10-08 11:06:32 by Eclipse SUMO netedit Version 1.14.0
<configuration xmlns:xsi="http://www.w3.org/2001/XMLSchema-instance" xsi:noNamespaceSchemaLocation="http://sumo.dlr.de/xsd/netconvertConfiguration.xsd">

    <input>
        <sumo-net-file value="/home/martinaelle/Desktop/ddc_folders/ddc_crowds_HIL/unisa_net/osmped.net.xml"/>
    </input>

    <output>
        <output-file value="/home/martinaelle/Desktop/ddc_folders/ddc_crowds_HIL/unisa_net/osmped.net.xml"/>
        <output.street-names value="true"/>
    </output>

    <processing>
        <geometry.min-radius.fix.railways value="false"/>
        <geometry.max-grade.fix value="false"/>
        <offset.disable-normalization value="true"/>
        <lefthand value="false"/>
    </processing>

    <junctions>
        <no-internal-links value="false"/>
        <no-turnarounds value="true"/>
        <junctions.corner-detail value="5"/>
        <junctions.limit-turn-speed value="5.5"/>
        <rectangular-lane-cut value="false"/>
    </junctions>

    <pedestrian>
        <walkingareas value="false"/>
    </pedestrian>

</configuration>
-->

<net version="1.9" junctionCornerDetail="5" limitTurnSpeed="5.50" xmlns:xsi="http://www.w3.org/2001/XMLSchema-instance" xsi:noNamespaceSchemaLocation="http://sumo.dlr.de/xsd/net_file.xsd">

    <location netOffset="-481150.63,-4511614.17" convBoundary="606.67,1242.56,1696.53,2464.14" origBoundary="14.776636,40.755338,14.827689,40.783016" projParameter="+proj=utm +zone=33 +ellps=WGS84 +datum=WGS84 +units=m +no_defs"/>

    <type id="highway.bridleway" priority="1" numLanes="1" speed="2.78" allow="pedestrian" oneway="1" width="2.00"/>
    <type id="highway.bus_guideway" priority="1" numLanes="1" speed="27.78" allow="bus" oneway="1"/>
    <type id="highway.cycleway" priority="1" numLanes="1" speed="8.33" allow="bicycle" oneway="1" width="1.00"/>
    <type id="highway.footway" priority="1" numLanes="1" speed="2.78" allow="pedestrian" oneway="1" width="2.00"/>
    <type id="highway.ford" priority="1" numLanes="1" speed="2.78" allow="army" oneway="1"/>
    <type id="highway.living_street" priority="2" numLanes="1" speed="2.78" disallow="tram rail_urban rail rail_electric rail_fast ship" oneway="1"/>
    <type id="highway.motorway" priority="14" numLanes="2" speed="39.44" allow="private emergency authority army vip passenger hov taxi bus coach delivery truck trailer motorcycle evehicle custom1 custom2" oneway="1"/>
    <type id="highway.motorway_link" priority="9" numLanes="1" speed="22.22" allow="private emergency authority army vip passenger hov taxi bus coach delivery truck trailer motorcycle evehicle custom1 custom2" oneway="1"/>
    <type id="highway.path" priority="1" numLanes="1" speed="2.78" allow="pedestrian bicycle" oneway="1" width="2.00"/>
    <type id="highway.pedestrian" priority="1" numLanes="1" speed="2.78" allow="pedestrian" oneway="1" width="2.00"/>
    <type id="highway.primary" priority="12" numLanes="2" speed="27.78" disallow="tram rail_urban rail rail_electric rail_fast ship" oneway="1"/>
    <type id="highway.primary_link" priority="7" numLanes="1" speed="22.22" disallow="tram rail_urban rail rail_electric rail_fast ship" oneway="1"/>
    <type id="highway.raceway" priority="15" numLanes="2" speed="83.33" allow="vip" oneway="1"/>
    <type id="highway.residential" priority="3" numLanes="1" speed="13.89" disallow="tram rail_urban rail rail_electric rail_fast ship" oneway="1"/>
    <type id="highway.secondary" priority="11" numLanes="1" speed="27.78" disallow="tram rail_urban rail rail_electric rail_fast ship" oneway="1"/>
    <type id="highway.secondary_link" priority="6" numLanes="1" speed="22.22" disallow="tram rail_urban rail rail_electric rail_fast ship" oneway="1"/>
    <type id="highway.service" priority="1" numLanes="1" speed="5.56" allow="pedestrian delivery bicycle" oneway="1"/>
    <type id="highway.stairs" priority="1" numLanes="1" speed="1.39" allow="pedestrian" oneway="1" width="2.00"/>
    <type id="highway.step" priority="1" numLanes="1" speed="1.39" allow="pedestrian" oneway="1" width="2.00"/>
    <type id="highway.steps" priority="1" numLanes="1" speed="1.39" allow="pedestrian" oneway="1" width="2.00"/>
    <type id="highway.tertiary" priority="10" numLanes="1" speed="22.22" disallow="tram rail_urban rail rail_electric rail_fast ship" oneway="1"/>
    <type id="highway.tertiary_link" priority="5" numLanes="1" speed="22.22" disallow="tram rail_urban rail rail_electric rail_fast ship" oneway="1"/>
    <type id="highway.track" priority="1" numLanes="1" speed="5.56" allow="pedestrian motorcycle moped bicycle" oneway="1"/>
    <type id="highway.trunk" priority="13" numLanes="2" speed="27.78" disallow="pedestrian bicycle tram rail_urban rail rail_electric rail_fast ship" oneway="1"/>
    <type id="highway.trunk_link" priority="8" numLanes="1" speed="22.22" disallow="pedestrian bicycle tram rail_urban rail rail_electric rail_fast ship" oneway="1"/>
    <type id="highway.unclassified" priority="4" numLanes="1" speed="13.89" disallow="tram rail_urban rail rail_electric rail_fast ship" oneway="1"/>
    <type id="highway.unsurfaced" priority="1" numLanes="1" speed="8.33" disallow="tram rail_urban rail rail_electric rail_fast ship" oneway="1"/>
    <type id="railway.highspeed" priority="21" numLanes="1" speed="69.44" allow="rail_fast" oneway="1"/>
    <type id="railway.light_rail" priority="19" numLanes="1" speed="27.78" allow="rail_urban" oneway="1"/>
    <type id="railway.preserved" priority="16" numLanes="1" speed="27.78" allow="rail" oneway="1"/>
    <type id="railway.rail" priority="20" numLanes="1" speed="44.44" allow="rail" oneway="1"/>
    <type id="railway.subway" priority="18" numLanes="1" speed="27.78" allow="rail_urban" oneway="1"/>
    <type id="railway.tram" priority="17" numLanes="1" speed="13.89" allow="tram" oneway="1"/>

    <edge id=":1265308081_0" function="internal">
        <lane id=":1265308081_0_0" index="0" disallow="tram rail_urban rail rail_electric rail_fast ship" speed="12.29" length="10.40" shape="1471.53,2072.32 1468.73,2073.61 1466.68,2074.45 1464.58,2074.69 1461.63,2074.19"/>
    </edge>
    <edge id=":1265308081_1" function="internal">
        <lane id=":1265308081_1_0" index="0" disallow="tram rail_urban rail rail_electric rail_fast ship" speed="6.84" length="8.15" shape="1471.53,2072.32 1469.59,2072.81 1467.75,2072.59 1466.03,2071.64 1464.41,2069.96"/>
    </edge>
    <edge id=":1265308081_w0" function="walkingarea">
        <lane id=":1265308081_w0_0" index="0" allow="pedestrian" speed="1.00" length="7.54" width="3.20" shape="1472.16,2073.79 1470.90,2070.85 1465.67,2068.99 1463.14,2070.94 1462.03,2072.64 1461.24,2075.74"/>
    </edge>
    <edge id=":1370556749_0" function="internal">
        <lane id=":1370556749_0_0" index="0" disallow="tram rail_urban rail rail_electric rail_fast ship" speed="8.33" length="14.87" shape="1513.31,1570.86 1507.00,1557.40"/>
    </edge>
    <edge id=":1370556749_1" function="internal">
        <lane id=":1370556749_1_0" index="0" disallow="pedestrian tram rail_urban rail rail_electric rail_fast ship" speed="7.80" length="16.59" shape="1513.31,1570.86 1511.92,1566.30 1512.53,1562.83 1515.14,1560.46 1519.73,1559.18"/>
    </edge>
    <edge id=":1370556749_2" function="internal">
        <lane id=":1370556749_2_0" index="0" disallow="pedestrian tram rail_urban rail rail_electric rail_fast ship" speed="6.25" length="10.16" shape="1520.15,1562.35 1517.33,1563.14 1515.73,1564.59 1515.36,1566.72 1516.21,1569.51"/>
    </edge>
    <edge id=":1370556749_3" function="internal">
        <lane id=":1370556749_3_0" index="0" disallow="pedestrian tram rail_urban rail rail_electric rail_fast ship" speed="8.33" length="15.06" shape="1520.15,1562.35 1515.51,1562.54 1511.77,1561.78 1508.94,1560.06 1507.00,1557.40"/>
    </edge>
    <edge id=":1370556749_4" function="internal">
        <lane id=":1370556749_4_0" index="0" disallow="pedestrian tram rail_urban rail rail_electric rail_fast ship" speed="8.08" length="11.03" shape="1509.89,1556.03 1511.25,1557.79 1513.34,1558.90 1516.17,1559.37 1519.73,1559.18"/>
    </edge>
    <edge id=":1370556749_5" function="internal">
        <lane id=":1370556749_5_0" index="0" disallow="pedestrian tram rail_urban rail rail_electric rail_fast ship" speed="8.33" length="14.89" shape="1509.89,1556.03 1516.21,1569.51"/>
    </edge>
    <edge id=":1370556749_w0" function="walkingarea">
        <lane id=":1370556749_w0_0" index="0" allow="pedestrian" speed="1.00" length="14.87" width="3.20" shape="1508.44,1556.71 1505.55,1558.08 1511.86,1571.54 1514.76,1570.19"/>
    </edge>
    <edge id=":1370556749_w1" function="walkingarea">
        <lane id=":1370556749_w1_0" index="0" allow="pedestrian" speed="1.00" length="3.98" width="2.00" shape="1517.66,1568.84 1519.47,1567.99 1520.61,1565.92 1520.35,1563.94 1518.98,1564.25 1517.97,1564.76 1517.33,1565.47 1517.07,1566.39 1517.18,1567.51"/>
    </edge>
    <edge id=":1370556749_w2" function="walkingarea">
        <lane id=":1370556749_w2_0" index="0" allow="pedestrian" speed="1.00" length="7.35" width="2.00" shape="1519.53,1557.59 1519.27,1555.61 1513.14,1554.49 1511.34,1555.34 1511.97,1556.27 1512.90,1556.98 1514.12,1557.47 1515.63,1557.73 1517.44,1557.77"/>
    </edge>
    <edge id=":1370556778_0" function="internal">
        <lane id=":1370556778_0_0" index="0" disallow="pedestrian tram rail_urban rail rail_electric rail_fast ship" speed="3.65" length="4.67" shape="1582.74,1548.40 1584.06,1548.99 1584.59,1549.71 1584.33,1550.56 1583.28,1551.56"/>
    </edge>
    <edge id=":1370556778_w0" function="walkingarea">
        <lane id=":1370556778_w0_0" index="0" allow="pedestrian" speed="1.00" length="8.40" width="2.00" shape="1583.56,1553.13 1583.90,1555.10 1582.12,1544.86 1582.46,1546.83"/>
    </edge>
    <edge id=":1370556788_0" function="internal">
        <lane id=":1370556788_0_0" index="0" disallow="tram rail_urban rail rail_electric rail_fast ship" speed="7.65" length="8.59" shape="1626.08,1775.41 1623.90,1775.04 1621.87,1775.29 1620.01,1776.18 1618.30,1777.68"/>
    </edge>
    <edge id=":1370556788_1" function="internal">
        <lane id=":1370556788_1_0" index="0" disallow="tram rail_urban rail rail_electric rail_fast ship" speed="22.22" length="9.60" shape="1626.08,1775.41 1616.98,1772.33"/>
    </edge>
    <edge id=":1370556788_2" function="internal">
        <lane id=":1370556788_2_0" index="0" disallow="tram rail_urban rail rail_electric rail_fast ship" speed="22.22" length="9.60" shape="1624.20,1770.13 1622.60,1772.48 1621.44,1774.06 1620.19,1775.56 1618.30,1777.68"/>
    </edge>
    <edge id=":1370556788_3" function="internal">
        <lane id=":1370556788_3_0" index="0" disallow="tram rail_urban rail rail_electric rail_fast ship" speed="6.82" length="8.23" shape="1624.20,1770.13 1622.76,1771.73 1621.07,1772.63 1619.15,1772.83 1616.98,1772.33"/>
    </edge>
    <edge id=":1370556788_w0" function="walkingarea">
        <lane id=":1370556788_w0_0" index="0" allow="pedestrian" speed="1.00" length="7.66" width="3.20" shape="1625.61,1776.94 1626.54,1773.88 1625.53,1771.02 1622.87,1769.23 1617.54,1770.83 1616.42,1773.82 1617.11,1776.62 1619.49,1778.75"/>
    </edge>
    <edge id=":1805901874_0" function="internal">
        <lane id=":1805901874_0_0" index="0" allow="private emergency authority army vip passenger hov taxi bus coach delivery truck trailer motorcycle evehicle custom1 custom2" speed="12.50" length="14.67" shape="730.58,2420.61 729.46,2417.09 728.06,2413.73 726.65,2410.37 725.52,2406.86"/>
    </edge>
    <edge id=":1805901874_1" function="internal">
        <lane id=":1805901874_1_0" index="0" allow="private emergency authority army vip passenger hov taxi bus coach delivery truck trailer motorcycle evehicle custom1 custom2" speed="12.50" length="14.89" shape="733.96,2418.98 731.52,2416.10 729.05,2413.25 726.92,2410.24 725.52,2406.86"/>
    </edge>
    <edge id=":1805901875_0" function="internal">
        <lane id=":1805901875_0_0" index="0" allow="private emergency authority army vip passenger hov taxi bus coach delivery truck trailer motorcycle evehicle custom1 custom2" speed="12.50" length="12.62" shape="737.59,2400.91 740.03,2403.23 741.96,2405.45 743.93,2407.64 746.47,2409.84"/>
    </edge>
    <edge id=":1805901875_1" function="internal">
        <lane id=":1805901875_1_0" index="0" allow="private emergency authority army vip passenger hov taxi bus coach delivery truck trailer motorcycle evehicle custom1 custom2" speed="12.50" length="12.93" shape="737.59,2400.91 739.84,2403.38 741.21,2406.05 742.22,2408.99 743.44,2412.24"/>
    </edge>
    <edge id=":3024587265_0" function="internal">
        <lane id=":3024587265_0_0" index="0" disallow="pedestrian tram rail_urban rail rail_electric rail_fast ship" speed="8.33" length="3.17" shape="1440.01,1419.81 1438.25,1417.18"/>
    </edge>
    <edge id=":3024587265_1" function="internal">
        <lane id=":3024587265_1_0" index="0" disallow="tram rail_urban rail rail_electric rail_fast ship" speed="11.11" length="9.20" shape="1440.01,1419.81 1445.41,1412.36"/>
    </edge>
    <edge id=":3024587265_2" function="internal">
        <lane id=":3024587265_2_0" index="0" disallow="tram rail_urban rail rail_electric rail_fast ship" speed="3.86" length="3.24" shape="1440.90,1415.39 1443.59,1413.58"/>
    </edge>
    <edge id=":3024587265_3" function="internal">
        <lane id=":3024587265_3_0" index="0" disallow="pedestrian tram rail_urban rail rail_electric rail_fast ship" speed="8.33" length="3.17" shape="1440.90,1415.39 1442.67,1418.02"/>
    </edge>
    <edge id=":3024587265_4" function="internal">
        <lane id=":3024587265_4_0" index="0" disallow="tram rail_urban rail rail_electric rail_fast ship" speed="3.86" length="2.19" shape="1443.59,1413.58 1445.41,1412.36"/>
    </edge>
    <edge id=":3024587265_w0" function="walkingarea">
        <lane id=":3024587265_w0_0" index="0" allow="pedestrian" speed="1.00" length="4.10" width="3.20" shape="1436.92,1418.07 1435.26,1419.19 1438.69,1420.70 1441.34,1418.92"/>
    </edge>
    <edge id=":3024587265_w1" function="walkingarea">
        <lane id=":3024587265_w1_0" index="0" allow="pedestrian" speed="1.00" length="4.60" width="3.20" shape="1444.00,1417.13 1445.66,1416.01 1446.71,1411.43 1444.10,1413.29 1442.23,1414.50 1439.57,1416.29"/>
    </edge>
    <edge id=":3960175909_0" function="internal">
        <lane id=":3960175909_0_0" index="0" disallow="tram rail_urban rail rail_electric rail_fast ship" speed="11.86" length="12.58" shape="990.70,2355.10 988.40,2357.52 985.96,2359.07 983.17,2360.01 979.81,2360.60"/>
    </edge>
    <edge id=":3960175909_1" function="internal">
        <lane id=":3960175909_1_0" index="0" disallow="tram rail_urban rail rail_electric rail_fast ship" speed="6.77" length="10.42" shape="990.70,2355.10 988.82,2356.76 986.68,2357.23 984.30,2356.51 981.68,2354.60"/>
    </edge>
    <edge id=":3960175909_w0" function="walkingarea">
        <lane id=":3960175909_w0_0" index="0" allow="pedestrian" speed="1.00" length="9.17" width="3.20" shape="991.96,2356.09 989.45,2354.11 982.76,2353.42 980.60,2355.78 979.60,2359.02 980.03,2362.19"/>
    </edge>
    <edge id=":3960175916_0" function="internal">
        <lane id=":3960175916_0_0" index="0" disallow="tram rail_urban rail rail_electric rail_fast ship" speed="15.27" length="5.88" shape="1004.00,2339.34 1002.64,2340.44 1001.74,2341.23 1000.93,2342.11 999.84,2343.47"/>
    </edge>
    <edge id=":3960175916_1" function="internal">
        <lane id=":3960175916_1_0" index="0" disallow="tram rail_urban rail rail_electric rail_fast ship" speed="5.69" length="5.13" shape="999.66,2338.71 1000.36,2340.00 1000.62,2341.22 1000.45,2342.38 999.84,2343.47"/>
    </edge>
    <edge id=":3960175916_w0" function="walkingarea">
        <lane id=":3960175916_w0_0" index="0" allow="pedestrian" speed="1.00" length="5.00" width="3.20" shape="1005.00,2340.59 1003.00,2338.10 1000.98,2337.80 998.34,2339.62 998.58,2342.48 1001.10,2344.45"/>
    </edge>
    <edge id=":3981878142_0" function="internal">
        <lane id=":3981878142_0_0" index="0" disallow="tram rail_urban rail rail_electric rail_fast ship" speed="3.65" length="4.67" shape="1272.33,1642.67 1273.33,1643.71 1273.54,1644.58 1272.98,1645.27 1271.63,1645.79"/>
    </edge>
    <edge id=":4207399145_0" function="internal">
        <lane id=":4207399145_0_0" index="0" disallow="pedestrian tram rail_urban rail rail_electric rail_fast ship" speed="3.65" length="4.67" shape="836.36,2094.54 835.14,2095.31 834.25,2095.35 833.68,2094.66 833.44,2093.24"/>
    </edge>
    <edge id=":4207399145_w0" function="walkingarea">
        <lane id=":4207399145_w0_0" index="0" allow="pedestrian" speed="1.00" length="5.80" width="3.20" shape="834.90,2093.89 831.98,2092.59 839.65,2096.00 837.82,2095.19"/>
    </edge>
    <edge id=":429515548_0" function="internal">
        <lane id=":429515548_0_0" index="0" disallow="tram rail_urban rail rail_electric rail_fast ship" speed="3.65" length="4.67" shape="606.93,2465.72 605.62,2465.13 605.09,2464.40 605.35,2463.55 606.41,2462.56"/>
    </edge>
    <edge id=":429515568_0" function="internal">
        <lane id=":429515568_0_0" index="0" disallow="tram rail_urban rail rail_electric rail_fast ship" speed="18.05" length="6.13" shape="1020.49,2329.15 1019.03,2330.23 1018.00,2330.93 1016.92,2331.56 1015.32,2332.43"/>
    </edge>
    <edge id=":429515568_1" function="internal">
        <lane id=":429515568_1_0" index="0" disallow="pedestrian tram rail_urban rail rail_electric rail_fast ship" speed="7.34" length="6.20" shape="1012.68,2327.63 1014.24,2327.94 1015.75,2327.87 1017.18,2327.42 1018.55,2326.60"/>
    </edge>
    <edge id=":429515568_2" function="internal">
        <lane id=":429515568_2_0" index="0" disallow="pedestrian tram rail_urban rail rail_electric rail_fast ship" speed="5.10" length="8.20" shape="1012.68,2327.63 1015.58,2328.78 1016.99,2329.97 1016.91,2331.18 1015.32,2332.43"/>
    </edge>
    <edge id=":429515568_w0" function="walkingarea">
        <lane id=":429515568_w0_0" index="0" allow="pedestrian" speed="1.00" length="6.12" width="3.20" shape="1014.56,2331.02 1016.08,2333.83 1021.45,2330.42 1019.52,2327.87 1018.39,2328.61 1017.23,2329.14 1016.03,2329.46 1014.79,2329.57 1013.51,2329.47"/>
    </edge>
    <edge id=":429515568_w1" function="walkingarea">
        <lane id=":429515568_w1_0" index="0" allow="pedestrian" speed="1.00" length="3.58" width="2.00" shape="1017.58,2325.32 1016.37,2323.73 1013.75,2324.19 1013.15,2326.10 1013.95,2326.29 1014.72,2326.35 1015.47,2326.28 1016.19,2326.09 1016.90,2325.77"/>
    </edge>
    <edge id=":4394618974_0" function="internal">
        <lane id=":4394618974_0_0" index="0" disallow="pedestrian tram rail_urban rail rail_electric rail_fast ship" speed="5.99" length="7.49" shape="1099.25,1877.89 1097.00,1876.90 1095.14,1876.65 1093.67,1877.12 1092.61,1878.33"/>
    </edge>
    <edge id=":4394618974_1" function="internal">
        <lane id=":4394618974_1_0" index="0" disallow="tram rail_urban rail rail_electric rail_fast ship" speed="7.58" length="12.62" shape="1099.25,1877.89 1096.08,1875.66 1094.29,1873.21 1093.88,1870.55 1094.83,1867.68"/>
    </edge>
    <edge id=":4394618974_2" function="internal">
        <lane id=":4394618974_2_0" index="0" disallow="pedestrian tram rail_urban rail rail_electric rail_fast ship" speed="5.99" length="7.49" shape="1097.64,1869.23 1097.18,1870.78 1097.56,1872.27 1098.76,1873.71 1100.80,1875.09"/>
    </edge>
    <edge id=":4394618974_3" function="internal">
        <lane id=":4394618974_3_0" index="0" disallow="pedestrian tram rail_urban rail rail_electric rail_fast ship" speed="22.22" length="10.40" shape="1097.64,1869.23 1092.61,1878.33"/>
    </edge>
    <edge id=":4394618974_4" function="internal">
        <lane id=":4394618974_4_0" index="0" disallow="tram rail_urban rail rail_electric rail_fast ship" speed="22.22" length="10.40" shape="1089.81,1876.78 1094.83,1867.68"/>
    </edge>
    <edge id=":4394618974_5" function="internal">
        <lane id=":4394618974_5_0" index="0" disallow="tram rail_urban rail rail_electric rail_fast ship" speed="7.58" length="3.14" shape="1089.81,1876.78 1091.73,1874.45 1091.83,1874.40"/>
    </edge>
    <edge id=":4394618974_6" function="internal">
        <lane id=":4394618974_6_0" index="0" disallow="tram rail_urban rail rail_electric rail_fast ship" speed="7.58" length="9.48" shape="1091.83,1874.40 1094.20,1873.39 1097.22,1873.60 1100.80,1875.09"/>
    </edge>
    <edge id=":4394618974_w0" function="walkingarea">
        <lane id=":4394618974_w0_0" index="0" allow="pedestrian" speed="1.00" length="6.31" width="3.20" shape="1094.01,1879.11 1095.76,1880.07 1098.48,1879.29 1100.02,1876.49 1100.02,1876.49 1101.57,1873.69 1100.79,1870.97 1099.04,1870.00"/>
    </edge>
    <edge id=":4394618974_w1" function="walkingarea">
        <lane id=":4394618974_w1_0" index="0" allow="pedestrian" speed="1.00" length="10.40" width="3.20" shape="1096.23,1868.46 1093.43,1866.91 1088.40,1876.01 1091.21,1877.56"/>
    </edge>
    <edge id=":4397551473_0" function="internal">
        <lane id=":4397551473_0_0" index="0" disallow="tram rail_urban rail rail_electric rail_fast ship" speed="12.50" length="3.21" shape="1377.70,1960.92 1377.21,1961.74 1376.91,1962.33 1376.72,1962.95 1376.54,1963.89"/>
    </edge>
    <edge id=":4397551473_1" function="internal">
        <lane id=":4397551473_1_0" index="0" disallow="tram rail_urban rail rail_electric rail_fast ship" speed="12.50" length="7.34" shape="1370.95,1965.42 1372.34,1963.76 1373.16,1962.52 1373.88,1961.19 1374.95,1959.29"/>
    </edge>
    <edge id=":4397551473_w0" function="walkingarea">
        <lane id=":4397551473_w0_0" index="0" allow="pedestrian" speed="1.00" length="5.41" width="3.20" shape="1379.07,1961.74 1376.32,1960.11 1376.32,1960.11 1373.57,1958.48 1369.76,1964.36 1372.14,1966.49 1374.96,1963.62 1378.12,1964.15"/>
    </edge>
    <edge id=":4398464858_0" function="internal">
        <lane id=":4398464858_0_0" index="0" disallow="tram rail_urban rail rail_electric rail_fast ship" speed="3.65" length="4.67" shape="1092.43,1521.42 1091.55,1522.56 1090.72,1522.91 1089.95,1522.45 1089.23,1521.20"/>
    </edge>
    <edge id=":4398486475_0" function="internal">
        <lane id=":4398486475_0_0" index="0" disallow="tram rail_urban rail rail_electric rail_fast ship" speed="22.22" length="12.25" shape="1261.15,1390.90 1248.90,1390.93"/>
    </edge>
    <edge id=":4398486475_1" function="internal">
        <lane id=":4398486475_1_0" index="0" disallow="tram rail_urban rail rail_electric rail_fast ship" speed="5.50" length="9.57" shape="1261.15,1390.90 1258.16,1390.53 1256.75,1389.46 1256.91,1387.70 1258.64,1385.23"/>
    </edge>
    <edge id=":4398486475_w0" function="walkingarea">
        <lane id=":4398486475_w0_0" index="0" allow="pedestrian" speed="1.00" length="9.91" width="3.20" shape="1261.15,1392.50 1261.16,1389.30 1259.83,1386.30 1257.45,1384.17 1248.88,1389.33 1248.93,1392.53"/>
    </edge>
    <edge id=":4398487490_0" function="internal">
        <lane id=":4398487490_0_0" index="0" disallow="tram rail_urban rail rail_electric rail_fast ship" speed="9.86" length="3.74" shape="1305.49,1332.08 1304.42,1331.83 1303.65,1331.74 1302.89,1331.81 1301.81,1332.05"/>
    </edge>
    <edge id=":4398487490_1" function="internal">
        <lane id=":4398487490_1_0" index="0" disallow="tram rail_urban rail rail_electric rail_fast ship" speed="18.05" length="3.78" shape="1301.07,1328.94 1302.16,1328.68 1302.90,1328.47 1303.62,1328.17 1304.62,1327.67"/>
    </edge>
    <edge id=":4398487490_w0" function="walkingarea">
        <lane id=":4398487490_w0_0" index="0" allow="pedestrian" speed="1.00" length="4.29" width="3.20" shape="1305.09,1333.63 1305.89,1330.53 1305.35,1329.09 1303.88,1326.25 1300.70,1327.38 1301.44,1330.49 1301.44,1330.49 1302.18,1333.61"/>
    </edge>
    <edge id=":4398491173_0" function="internal">
        <lane id=":4398491173_0_0" index="0" disallow="tram rail_urban rail rail_electric rail_fast ship" speed="13.89" length="28.10" shape="1296.89,1397.98 1293.26,1402.46 1288.62,1409.28 1284.15,1416.24 1281.05,1421.16"/>
    </edge>
    <edge id=":4398491173_1" function="internal">
        <lane id=":4398491173_1_0" index="0" disallow="tram rail_urban rail rail_electric rail_fast ship" speed="13.89" length="12.99" shape="1296.89,1397.98 1292.67,1401.87 1287.15,1406.57"/>
    </edge>
    <edge id=":4398491173_6" function="internal">
        <lane id=":4398491173_6_0" index="0" disallow="tram rail_urban rail rail_electric rail_fast ship" speed="13.89" length="13.98" shape="1287.15,1406.57 1286.55,1407.08 1280.17,1411.63 1275.18,1413.57"/>
    </edge>
    <edge id=":4398491173_2" function="internal">
        <lane id=":4398491173_2_0" index="0" disallow="tram rail_urban rail rail_electric rail_fast ship" speed="7.60" length="16.14" shape="1275.21,1410.37 1280.67,1409.88 1284.12,1408.29 1285.57,1405.61 1285.01,1401.84"/>
    </edge>
    <edge id=":4398491173_3" function="internal">
        <lane id=":4398491173_3_0" index="0" disallow="tram rail_urban rail rail_electric rail_fast ship" speed="7.39" length="17.08" shape="1275.21,1410.37 1280.33,1411.08 1283.01,1413.12 1283.25,1416.48 1281.05,1421.16"/>
    </edge>
    <edge id=":4398491173_4" function="internal">
        <lane id=":4398491173_4_0" index="0" disallow="tram rail_urban rail rail_electric rail_fast ship" speed="5.63" length="9.28" shape="1278.36,1419.43 1279.55,1416.89 1279.42,1415.06 1277.96,1413.96 1275.18,1413.57"/>
    </edge>
    <edge id=":4398491173_5" function="internal">
        <lane id=":4398491173_5_0" index="0" disallow="tram rail_urban rail rail_electric rail_fast ship" speed="12.88" length="19.21" shape="1278.36,1419.43 1281.89,1413.46 1284.18,1408.54 1285.22,1404.67 1285.01,1401.84"/>
    </edge>
    <edge id=":4398491173_w0" function="walkingarea">
        <lane id=":4398491173_w0_0" index="0" allow="pedestrian" speed="1.00" length="15.47" width="3.20" shape="1297.99,1399.14 1295.79,1396.81 1286.51,1401.30 1283.50,1402.39 1275.22,1408.77 1275.19,1411.97 1275.19,1411.97 1275.17,1415.17 1277.01,1418.57 1279.70,1420.30 1279.70,1420.30 1282.40,1422.02"/>
    </edge>
    <edge id=":4398491175_0" function="internal">
        <lane id=":4398491175_0_0" index="0" disallow="tram rail_urban rail rail_electric rail_fast ship" speed="7.53" length="7.83" shape="1282.15,1395.67 1280.88,1393.63 1279.49,1392.17 1277.98,1391.29 1276.35,1390.99"/>
    </edge>
    <edge id=":4398491175_1" function="internal">
        <lane id=":4398491175_1_0" index="0" disallow="tram rail_urban rail rail_electric rail_fast ship" speed="22.22" length="8.63" shape="1284.97,1391.36 1276.35,1390.99"/>
    </edge>
    <edge id=":4398491175_w0" function="walkingarea">
        <lane id=":4398491175_w0_0" index="0" allow="pedestrian" speed="1.00" length="7.08" width="3.20" shape="1280.74,1396.41 1283.57,1394.93 1284.86,1392.96 1285.07,1389.76 1276.36,1389.39 1276.34,1392.59"/>
    </edge>
    <edge id=":4398491179_0" function="internal">
        <lane id=":4398491179_0_0" index="0" disallow="tram rail_urban rail rail_electric rail_fast ship" speed="9.85" length="9.41" shape="1307.19,1392.82 1304.94,1392.93 1302.78,1393.54 1300.70,1394.65 1298.71,1396.25"/>
    </edge>
    <edge id=":4398491179_1" function="internal">
        <lane id=":4398491179_1_0" index="0" disallow="tram rail_urban rail rail_electric rail_fast ship" speed="18.05" length="9.97" shape="1307.19,1392.82 1297.24,1392.18"/>
    </edge>
    <edge id=":4398491179_2" function="internal">
        <lane id=":4398491179_2_0" index="0" disallow="tram rail_urban rail rail_electric rail_fast ship" speed="8.06" length="9.02" shape="1303.25,1388.80 1303.22,1390.20 1302.46,1391.91 1300.95,1393.93 1298.71,1396.25"/>
    </edge>
    <edge id=":4398491179_3" function="internal">
        <lane id=":4398491179_3_0" index="0" disallow="tram rail_urban rail rail_electric rail_fast ship" speed="5.66" length="8.27" shape="1303.25,1388.80 1303.27,1390.46 1302.28,1391.57 1300.27,1392.15 1297.24,1392.18"/>
    </edge>
    <edge id=":4398491179_w0" function="walkingarea">
        <lane id=":4398491179_w0_0" index="0" allow="pedestrian" speed="1.00" length="7.45" width="3.20" shape="1307.09,1394.42 1307.28,1391.23 1304.79,1388.38 1301.71,1389.23 1297.35,1390.58 1297.13,1393.78 1297.61,1395.09 1299.81,1397.41"/>
    </edge>
    <edge id=":4398505090_0" function="internal">
        <lane id=":4398505090_0_0" index="0" disallow="pedestrian tram rail_urban rail rail_electric rail_fast ship" speed="6.11" length="6.55" shape="1330.26,1340.66 1329.96,1339.39 1329.08,1338.33 1327.60,1337.49 1325.54,1336.87"/>
    </edge>
    <edge id=":4398505090_1" function="internal">
        <lane id=":4398505090_1_0" index="0" disallow="pedestrian tram rail_urban rail rail_electric rail_fast ship" speed="22.22" length="6.62" shape="1330.26,1340.66 1330.10,1338.72 1329.75,1337.41 1329.39,1336.10 1329.20,1334.16"/>
    </edge>
    <edge id=":4398505090_2" function="internal">
        <lane id=":4398505090_2_0" index="0" disallow="tram rail_urban rail rail_electric rail_fast ship" speed="18.05" length="7.82" shape="1333.29,1337.50 1330.97,1337.59 1329.38,1337.56 1327.80,1337.34 1325.54,1336.87"/>
    </edge>
    <edge id=":4398505090_3" function="internal">
        <lane id=":4398505090_3_0" index="0" disallow="tram rail_urban rail rail_electric rail_fast ship" speed="5.41" length="6.05" shape="1333.29,1337.50 1331.52,1337.36 1330.25,1336.75 1329.48,1335.69 1329.20,1334.16"/>
    </edge>
    <edge id=":4398505090_w0" function="walkingarea">