<?xml version="1.0" encoding="UTF-8"?>

<!-- generated on 03/10/21 12:51:35 by Eclipse SUMO GUI Version 1.8.0
-->

<configuration xmlns:xsi="http://www.w3.org/2001/XMLSchema-instance"
               xsi:noNamespaceSchemaLocation="http://sumo.dlr.de/xsd/sumoConfiguration.xsd">

    <input>
        <net-file value="my_net.net.xml"/>
        <route-files value="my_routes.rou.xml"/>
    </input>

    <gui_only>
        <delay value="100"/>
    </gui_only>

</configuration>
