<nodes>
    <node id="N1" x="0" y="0" type="priority"/>
    <node id="N2" x="100" y="0" type="traffic_light"/>
    <node id="N3" x="200" y="0" type="priority"/>
    <node id="N4" x="200" y="100" type="priority"/>
    <node id="N5" x="100" y="100" type="traffic_light"/>
    <node id="N6" x="0" y="100" type="priority"/>
</nodes>