<?xml version="1.0" encoding="UTF-8"?>

<!-- generated on 2022-10-17 13:22:04 by Eclipse SUMO netedit Version 1.14.0
-->

<routes xmlns:xsi="http://www.w3.org/2001/XMLSchema-instance" xsi:noNamespaceSchemaLocation="http://sumo.dlr.de/xsd/routes_file.xsd">
    <!-- VTypes -->
    <vType id="BUS" accel="2.6" decel="4.5" sigma="0" length="10" minGap="3" maxSpeed="70" color="1,1,0" guiShape="bus"/>
    <!-- Vehicles, persons and containers (sorted by depart) -->
    <flow id="fbus_0" type="BUS" begin="0.00" end="3600.00" number="2">
        <route edges="50723713#0 50723713#1 50723708 671121562#0 671121562#1 185483089#0 185483089#1 185483089#2 185483089#4 185483089#5 185483089#6 185483089#7 185483089#8 185483089#9 185483089#10 185483089#11 185483089#12 185483089#13 185483089#14 185483089#15 185483089#16 185483089#17 185483089#18 185483089#19 185483089#20 185483089#21 185483089#22 185483089#23 185483089#24 50731850#0 50731850#1 766511481 50731851#1 225207216 225207178#1 225207178#2 225207178#3 225207178#4" />
    </flow>
    <flow id="fbus_1" type="BUS" begin="0.00" end="3600.00" number="2">
        <route edges="50695151#0 50695151#1 50695151#2 50695151#3 50695151#4 50695151#5 50701873#0 50701873#1 766350959#0 766350959#1 766350959#2 766511482#1 668814536#0 668814536#1 668814536#2 668814536#3 668814536#4 668814536#5 668814536#6 668814536#7 668814536#8 668814536#9 668814536#10 668814536#11 668814536#12 50718212#0 50718212#1 50718212#2 50718212#3 23653449#0 23653449#1 23653449#2 23653449#3 23653449#4 23653449#5 23653449#6 23653449#7 23653449#8 23653449#9 23653449#10 23653449#11 23653449#12 23653449#13 23653449#14 23653449#15 23653449#16 23653449#17 23653449#18 398164151#1 398164151#2 671471170#0 671471170#1 671471170#2 671471170#3 274913869"/>
    </flow>
    <flow id="fbus_2" type="BUS" begin="0.00" end="3600.00" number="2">
        <route edges="50793374#1 50793374#2 50793374#3 50793374#4 50793374#5 50793376#0 50793376#1 163563224 163563225 50733593 163563223#0 163563223#1 50702263#0 50702263#1 50702263#2 50702263#2-AddedOffRampEdge 50702263#3 50702263#4 50702263#5 50702263#6 398055968#0 398055968#1 398055968#2 398055968#3 50702257 185483089#18 185483089#19 185483089#20 185483089#21 185483089#22 185483089#23"/>
    </flow>
</routes>
