<?xml version="1.0" encoding="UTF-8"?>

<!-- generated on 2022-10-24 18:02:17 by Eclipse SUMO netedit Version 1.14.0
<configuration xmlns:xsi="http://www.w3.org/2001/XMLSchema-instance" xsi:noNamespaceSchemaLocation="http://sumo.dlr.de/xsd/netconvertConfiguration.xsd">

    <input>
        <sumo-net-file value="salerno_net/osm.net.xml"/>
    </input>

    <output>
        <output-file value="salerno_net/osm.net.xml"/>
        <output.street-names value="true"/>
    </output>

    <processing>
        <geometry.min-radius.fix.railways value="false"/>
        <geometry.max-grade.fix value="false"/>
        <offset.disable-normalization value="true"/>
        <lefthand value="false"/>
    </processing>

    <junctions>
        <no-turnarounds value="true"/>
        <junctions.corner-detail value="5"/>
        <junctions.limit-turn-speed value="5.5"/>
        <rectangular-lane-cut value="false"/>
    </junctions>

    <pedestrian>
        <walkingareas value="false"/>
    </pedestrian>

</configuration>
-->

<net version="1.9" junctionCornerDetail="5" limitTurnSpeed="5.50" xmlns:xsi="http://www.w3.org/2001/XMLSchema-instance" xsi:noNamespaceSchemaLocation="http://sumo.dlr.de/xsd/net_file.xsd">

    <location netOffset="-473352.39,-4501520.14" convBoundary="0.00,0.00,9031.74,8766.15" origBoundary="14.600907,40.628585,14.791594,40.743093" projParameter="+proj=utm +zone=33 +ellps=WGS84 +datum=WGS84 +units=m +no_defs"/>

    <type id="highway.bridleway" priority="1" numLanes="1" speed="2.78" allow="pedestrian" oneway="1" width="2.00"/>
    <type id="highway.bus_guideway" priority="1" numLanes="1" speed="27.78" allow="bus" oneway="1"/>
    <type id="highway.cycleway" priority="1" numLanes="1" speed="5.56" allow="bicycle" oneway="0" width="1.00"/>
    <type id="highway.footway" priority="1" numLanes="1" speed="2.78" allow="pedestrian" oneway="1" width="2.00"/>
    <type id="highway.ford" priority="1" numLanes="1" speed="2.78" allow="army" oneway="0"/>
    <type id="highway.living_street" priority="2" numLanes="1" speed="2.78" disallow="tram rail_urban rail rail_electric rail_fast ship" oneway="0"/>
    <type id="highway.motorway" priority="14" numLanes="2" speed="39.44" allow="private emergency authority army vip passenger hov taxi bus coach delivery truck trailer motorcycle evehicle custom1 custom2" oneway="1"/>
    <type id="highway.motorway_link" priority="9" numLanes="1" speed="22.22" allow="private emergency authority army vip passenger hov taxi bus coach delivery truck trailer motorcycle evehicle custom1 custom2" oneway="1"/>
    <type id="highway.path" priority="1" numLanes="1" speed="5.56" allow="pedestrian bicycle" oneway="0" width="2.00"/>
    <type id="highway.pedestrian" priority="1" numLanes="1" speed="2.78" allow="pedestrian" oneway="1" width="2.00"/>
    <type id="highway.primary" priority="12" numLanes="2" speed="27.78" disallow="tram rail_urban rail rail_electric rail_fast ship" oneway="0"/>
    <type id="highway.primary_link" priority="7" numLanes="1" speed="22.22" disallow="tram rail_urban rail rail_electric rail_fast ship" oneway="0"/>
    <type id="highway.raceway" priority="15" numLanes="2" speed="83.33" allow="vip" oneway="0"/>
    <type id="highway.residential" priority="3" numLanes="1" speed="13.89" disallow="tram rail_urban rail rail_electric rail_fast ship" oneway="0"/>
    <type id="highway.secondary" priority="11" numLanes="1" speed="27.78" disallow="tram rail_urban rail rail_electric rail_fast ship" oneway="0"/>
    <type id="highway.secondary_link" priority="6" numLanes="1" speed="22.22" disallow="tram rail_urban rail rail_electric rail_fast ship" oneway="0"/>
    <type id="highway.service" priority="1" numLanes="1" speed="5.56" allow="pedestrian delivery bicycle" oneway="0"/>
    <type id="highway.stairs" priority="1" numLanes="1" speed="1.39" allow="pedestrian" oneway="1" width="2.00"/>
    <type id="highway.step" priority="1" numLanes="1" speed="1.39" allow="pedestrian" oneway="1" width="2.00"/>
    <type id="highway.steps" priority="1" numLanes="1" speed="1.39" allow="pedestrian" oneway="1" width="2.00"/>
    <type id="highway.tertiary" priority="10" numLanes="1" speed="22.22" disallow="tram rail_urban rail rail_electric rail_fast ship" oneway="0"/>
    <type id="highway.tertiary_link" priority="5" numLanes="1" speed="22.22" disallow="tram rail_urban rail rail_electric rail_fast ship" oneway="0"/>
    <type id="highway.track" priority="1" numLanes="1" speed="5.56" allow="pedestrian motorcycle moped bicycle" oneway="0"/>
    <type id="highway.trunk" priority="13" numLanes="2" speed="27.78" disallow="pedestrian bicycle tram rail_urban rail rail_electric rail_fast ship" oneway="0"/>
    <type id="highway.trunk_link" priority="8" numLanes="1" speed="22.22" disallow="pedestrian bicycle tram rail_urban rail rail_electric rail_fast ship" oneway="0"/>
    <type id="highway.unclassified" priority="4" numLanes="1" speed="13.89" disallow="tram rail_urban rail rail_electric rail_fast ship" oneway="0"/>
    <type id="highway.unsurfaced" priority="1" numLanes="1" speed="8.33" disallow="tram rail_urban rail rail_electric rail_fast ship" oneway="0"/>
    <type id="railway.highspeed" priority="21" numLanes="1" speed="69.44" allow="rail_fast" oneway="1"/>
    <type id="railway.light_rail" priority="19" numLanes="1" speed="27.78" allow="rail_urban" oneway="1"/>
    <type id="railway.preserved" priority="16" numLanes="1" speed="27.78" allow="rail" oneway="1"/>
    <type id="railway.rail" priority="20" numLanes="1" speed="44.44" allow="rail" oneway="1"/>
    <type id="railway.subway" priority="18" numLanes="1" speed="27.78" allow="rail_urban" oneway="1"/>
    <type id="railway.tram" priority="17" numLanes="1" speed="13.89" allow="tram" oneway="1"/>

    <edge id=":1075947574_0" function="internal">
        <lane id=":1075947574_0_0" index="0" allow="rail" speed="44.44" length="33.35" shape="7367.57,1386.84 7363.90,1392.35 7358.51,1400.84 7353.21,1409.39 7349.78,1415.05"/>
    </edge>
    <edge id=":1075947574_1" function="internal">
        <lane id=":1075947574_1_0" index="0" allow="rail" speed="44.44" length="33.33" shape="7367.57,1386.84 7346.99,1413.06"/>
    </edge>
    <edge id=":1075947574_2" function="internal" bidi=":1075947574_3">
        <lane id=":1075947574_2_0" index="0" allow="rail" speed="3.94" length="4.80" shape="7346.99,1413.06 7348.06,1412.52 7349.19,1412.89 7349.91,1413.84 7349.78,1415.05"/>
    </edge>
    <edge id=":1075947574_3" function="internal" bidi=":1075947574_2">
        <lane id=":1075947574_3_0" index="0" allow="rail" speed="7.64" length="23.39" shape="7349.78,1415.05 7353.98,1407.43 7354.92,1404.56 7352.59,1406.44 7346.99,1413.06"/>
    </edge>
    <edge id=":1075947579_0" function="internal">
        <lane id=":1075947579_0_0" index="0" allow="rail" speed="44.44" length="2.83" shape="7459.47,1279.63 7459.03,1280.34 7458.74,1280.84 7458.48,1281.35 7458.11,1282.11"/>
    </edge>
    <edge id=":1075947579_1" function="internal">
        <lane id=":1075947579_1_0" index="0" allow="rail" speed="44.44" length="2.85" shape="7459.47,1279.63 7457.89,1282.00"/>
    </edge>
    <edge id=":1075947579_2" function="internal">
        <lane id=":1075947579_2_0" index="0" allow="rail" speed="2.82" length="1.54" shape="7458.11,1282.11 7458.34,1281.59 7458.39,1281.40 7458.24,1281.54 7457.89,1282.00"/>
    </edge>
    <edge id=":1075947583_0" function="internal">
        <lane id=":1075947583_0_0" index="0" allow="rail" speed="44.44" length="35.26" shape="7351.58,1398.86 7329.64,1426.46"/>
    </edge>
    <edge id=":1075947583_1" function="internal">
        <lane id=":1075947583_1_0" index="0" allow="rail" speed="44.44" length="35.25" shape="7351.58,1398.86 7346.94,1403.98 7339.50,1411.68 7331.98,1419.32 7327.13,1424.25"/>
    </edge>
    <edge id=":1075947583_2" function="internal" bidi=":1075947583_3">
        <lane id=":1075947583_2_0" index="0" allow="rail" speed="3.88" length="4.71" shape="7327.13,1424.25 7328.23,1423.83 7329.30,1424.31 7329.92,1425.31 7329.64,1426.46"/>
    </edge>
    <edge id=":1075947583_3" function="internal" bidi=":1075947583_2">
        <lane id=":1075947583_3_0" index="0" allow="rail" speed="9.00" length="33.86" shape="7329.64,1426.46 7337.34,1416.44 7339.49,1412.73 7336.09,1415.33 7327.13,1424.25"/>
    </edge>
    <edge id=":1075947586_0" function="internal">
        <lane id=":1075947586_0_0" index="0" allow="rail" speed="0.10" length="0.10" shape="7289.99,1461.03 7289.99,1461.03"/>
    </edge>
    <edge id=":1075947595_0" function="internal">
        <lane id=":1075947595_0_0" index="0" allow="rail" speed="44.44" length="20.01" shape="7476.60,1252.61 7474.00,1256.31 7471.06,1260.93 7468.21,1265.60 7465.84,1269.47"/>
    </edge>
    <edge id=":1075947595_1" function="internal">
        <lane id=":1075947595_1_0" index="0" allow="rail" speed="44.44" length="20.00" shape="7476.60,1252.61 7463.09,1267.36"/>
    </edge>
    <edge id=":1075947605_0" function="internal">
        <lane id=":1075947605_0_0" index="0" allow="rail" speed="0.10" length="0.10" shape="7399.49,1380.48 7399.49,1380.48"/>
    </edge>
    <edge id=":1075947606_0" function="internal">
        <lane id=":1075947606_0_0" index="0" allow="rail" speed="44.44" length="28.97" shape="7356.05,1381.25 7376.33,1360.57"/>
    </edge>
    <edge id=":1075947606_1" function="internal">
        <lane id=":1075947606_1_0" index="0" allow="rail" speed="44.44" length="28.97" shape="7358.60,1383.47 7376.33,1360.57"/>
    </edge>
    <edge id=":1075947619_0" function="internal">
        <lane id=":1075947619_0_0" index="0" allow="rail" speed="44.44" length="3.04" shape="7460.24,1270.42 7458.22,1272.70"/>
    </edge>
    <edge id=":1075947629_0" function="internal">
        <lane id=":1075947629_0_0" index="0" allow="rail" speed="44.44" length="3.03" shape="7399.36,1333.61 7401.26,1331.25"/>
    </edge>
    <edge id=":1075948605_0" function="internal">
        <lane id=":1075948605_0_0" index="0" allow="rail" speed="0.10" length="0.10" shape="7283.94,1456.06 7283.94,1456.06"/>
    </edge>
    <edge id=":1075948607_0" function="internal">
        <lane id=":1075948607_0_0" index="0" allow="rail" speed="0.10" length="0.10" shape="7292.94,1463.69 7292.94,1463.69"/>
    </edge>
    <edge id=":1075948609_0" function="internal">
        <lane id=":1075948609_0_0" index="0" allow="rail" speed="0.10" length="0.10" shape="7280.47,1453.51 7280.47,1453.51"/>
    </edge>
    <edge id=":1075948610_0" function="internal">
        <lane id=":1075948610_0_0" index="0" allow="rail" speed="0.10" length="0.10" shape="7277.13,1450.58 7277.13,1450.58"/>
    </edge>
    <edge id=":1075948613_0" function="internal">
        <lane id=":1075948613_0_0" index="0" allow="rail" speed="0.10" length="0.10" shape="7273.40,1446.63 7273.40,1446.63"/>
    </edge>
    <edge id=":1075948616_0" function="internal">
        <lane id=":1075948616_0_0" index="0" allow="rail" speed="0.10" length="0.10" shape="7297.06,1467.64 7297.06,1467.64"/>
    </edge>
    <edge id=":1075949959_0" function="internal">
        <lane id=":1075949959_0_0" index="0" allow="rail" speed="44.44" length="2.99" shape="7388.94,1327.26 7386.62,1329.13"/>
    </edge>
    <edge id=":1075949959_1" function="internal">
        <lane id=":1075949959_1_0" index="0" allow="rail" speed="44.44" length="3.00" shape="7388.94,1327.26 7388.24,1327.81 7387.75,1328.17 7387.23,1328.50 7386.47,1328.96"/>
    </edge>
    <edge id=":1075949959_2" function="internal">
        <lane id=":1075949959_2_0" index="0" allow="rail" speed="2.90" length="1.74" shape="7386.62,1329.13 7387.11,1328.72 7387.25,1328.55 7387.04,1328.63 7386.47,1328.96"/>
    </edge>
    <edge id=":1075949961_0" function="internal">
        <lane id=":1075949961_0_0" index="0" allow="rail" speed="0.10" length="0.10" shape="7292.36,1389.18 7292.36,1389.18"/>
    </edge>
    <edge id=":1075949964_0" function="internal">
        <lane id=":1075949964_0_0" index="0" allow="rail" speed="0.10" length="0.10" shape="7334.02,1371.31 7334.02,1371.31"/>
    </edge>
    <edge id=":1075949965_0" function="internal">
        <lane id=":1075949965_0_0" index="0" allow="rail" speed="44.44" length="28.00" shape="7305.06,1377.19 7300.29,1380.45 7293.50,1385.10 7286.79,1389.85 7282.27,1393.42"/>
    </edge>
    <edge id=":1075949965_1" function="internal">
        <lane id=":1075949965_1_0" index="0" allow="rail" speed="44.44" length="28.01" shape="7305.06,1377.19 7282.15,1393.30"/>
    </edge>
    <edge id=":1075949965_2" function="internal">
        <lane id=":1075949965_2_0" index="0" allow="rail rail_electric rail_fast" speed="44.44" length="28.00" shape="7302.95,1374.54 7282.27,1393.42"/>
    </edge>
    <edge id=":1075949965_3" function="internal">
        <lane id=":1075949965_3_0" index="0" allow="rail" speed="44.44" length="28.01" shape="7302.95,1374.54 7298.70,1378.47 7292.66,1384.05 7286.56,1389.57 7282.15,1393.30"/>
    </edge>
    <edge id=":1075949965_4" function="internal">
        <lane id=":1075949965_4_0" index="0" allow="rail" speed="2.84" length="1.62" shape="7282.27,1393.42 7282.70,1393.00 7282.82,1392.84 7282.64,1392.94 7282.15,1393.30"/>
    </edge>
    <edge id=":1075949966_0" function="internal">
        <lane id=":1075949966_0_0" index="0" allow="rail" speed="44.44" length="3.02" shape="7327.50,1361.65 7326.73,1362.10 7326.21,1362.43 7325.71,1362.78 7325.00,1363.33"/>
    </edge>
    <edge id=":1075949966_1" function="internal">
        <lane id=":1075949966_1_0" index="0" allow="rail" speed="44.44" length="3.02" shape="7327.50,1361.65 7324.95,1363.27"/>
    </edge>
    <edge id=":1075949966_2" function="internal">
        <lane id=":1075949966_2_0" index="0" allow="rail" speed="44.44" length="3.01" shape="7325.00,1363.33 7327.36,1361.46"/>
    </edge>
    <edge id=":1075949967_0" function="internal">
        <lane id=":1075949967_0_0" index="0" allow="rail rail_electric rail_fast" speed="0.10" length="0.10" shape="7210.14,1461.02 7210.14,1461.02"/>
    </edge>
    <edge id=":1075949970_0" function="internal">
        <lane id=":1075949970_0_0" index="0" allow="rail" speed="0.10" length="0.10" shape="7335.39,1361.34 7335.39,1361.34"/>
    </edge>
    <edge id=":1075949972_0" function="internal">
        <lane id=":1075949972_0_0" index="0" allow="rail" speed="44.44" length="3.04" shape="7371.69,1337.91 7369.12,1339.53"/>
    </edge>
    <edge id=":1075949972_1" function="internal">
        <lane id=":1075949972_1_0" index="0" allow="rail" speed="44.44" length="3.05" shape="7371.69,1337.91 7370.92,1338.38 7370.38,1338.68 7369.83,1338.96 7369.01,1339.36"/>
    </edge>
    <edge id=":1075949972_2" function="internal">
        <lane id=":1075949972_2_0" index="0" allow="rail" speed="2.87" length="1.67" shape="7369.12,1339.53 7369.63,1339.18 7369.79,1339.04 7369.58,1339.10 7369.01,1339.36"/>
    </edge>
    <edge id=":1075950963_0" function="internal">
        <lane id=":1075950963_0_0" index="0" disallow="tram rail_urban rail rail_electric rail_fast ship" speed="6.32" length="9.83" shape="7281.52,1618.48 7278.96,1616.92 7276.76,1616.58 7274.91,1617.45 7273.42,1619.53"/>
    </edge>
    <edge id=":1075950963_1" function="internal">
        <lane id=":1075950963_1_0" index="0" disallow="tram rail_urban rail rail_electric rail_fast ship" speed="13.89" length="14.46" shape="7281.52,1618.48 7270.10,1609.61"/>
    </edge>
    <edge id=":1075950963_2" function="internal">
        <lane id=":1075950963_2_0" index="0" disallow="tram rail_urban rail rail_electric rail_fast ship" speed="7.86" length="12.24" shape="7281.52,1618.48 7278.71,1615.80 7277.12,1613.17 7276.76,1610.58 7277.62,1608.05"/>
    </edge>
    <edge id=":1075950963_3" function="internal">
        <lane id=":1075950963_3_0" index="0" disallow="tram rail_urban rail rail_electric rail_fast ship" speed="13.89" length="12.19" shape="7280.44,1609.57 7273.42,1619.53"/>
    </edge>
    <edge id=":1075950963_4" function="internal">
        <lane id=":1075950963_4_0" index="0" disallow="tram rail_urban rail rail_electric rail_fast ship" speed="7.11" length="1.85" shape="7280.44,1609.57 7279.20,1610.95"/>
    </edge>
    <edge id=":1075950963_5" function="internal">
        <lane id=":1075950963_5_0" index="0" disallow="tram rail_urban rail rail_electric rail_fast ship" speed="7.11" length="10.16" shape="7279.20,1610.95 7278.59,1611.63 7276.24,1612.32 7273.41,1611.65 7270.10,1609.61"/>
    </edge>
    <edge id=":1075950968_0" function="internal">
        <lane id=":1075950968_0_0" index="0" disallow="tram rail_urban rail rail_electric rail_fast ship" speed="27.78" length="9.86" shape="7326.22,1528.45 7333.04,1535.57"/>
    </edge>
    <edge id=":1075950968_1" function="internal">
        <lane id=":1075950968_1_0" index="0" disallow="tram rail_urban rail rail_electric rail_fast ship" speed="7.35" length="8.72" shape="7326.22,1528.45 7327.96,1530.55 7328.96,1532.55 7329.23,1534.44 7328.76,1536.22"/>
    </edge>
    <edge id=":1075950968_2" function="internal">
        <lane id=":1075950968_2_0" index="0" disallow="tram rail_urban rail rail_electric rail_fast ship" speed="5.82" length="8.95" shape="7325.88,1534.83 7327.15,1533.17 7328.77,1532.75 7330.73,1533.54 7333.04,1535.57"/>
    </edge>
    <edge id=":1075950969_0" function="internal">
        <lane id=":1075950969_0_0" index="0" disallow="tram rail_urban rail rail_electric rail_fast ship" speed="27.78" length="9.43" shape="7340.66,1543.23 7347.33,1549.89"/>
    </edge>
    <edge id=":1075950969_1" function="internal">
        <lane id=":1075950969_1_0" index="0" disallow="tram rail_urban rail rail_electric rail_fast ship" speed="6.35" length="7.92" shape="7340.66,1543.23 7342.44,1545.30 7343.42,1547.13 7343.59,1548.73 7342.95,1550.10"/>
    </edge>
    <edge id=":1075950969_2" function="internal">
        <lane id=":1075950969_2_0" index="0" disallow="tram rail_urban rail rail_electric rail_fast ship" speed="5.99" length="8.03" shape="7340.49,1548.06 7341.76,1547.15 7343.33,1547.15 7345.19,1548.07 7347.33,1549.89"/>
    </edge>
    <edge id=":1076335544_0" function="internal">
        <lane id=":1076335544_0_0" index="0" allow="rail" speed="44.44" length="2.93" shape="7531.23,1290.14 7530.99,1293.06"/>
    </edge>
    <edge id=":1076335544_1" function="internal">
        <lane id=":1076335544_1_0" index="0" allow="rail" speed="44.44" length="2.95" shape="7531.23,1290.14 7530.79,1293.06"/>
    </edge>
    <edge id=":1076335544_2" function="internal">
        <lane id=":1076335544_2_0" index="0" allow="rail" speed="2.83" length="1.57" shape="7530.99,1293.06 7531.01,1292.49 7530.98,1292.29 7530.91,1292.48 7530.79,1293.06"/>
    </edge>
    <edge id=":1076335557_0" function="internal">
        <lane id=":1076335557_0_0" index="0" allow="rail" speed="0.10" length="0.10" shape="7479.38,1525.53 7479.38,1525.53"/>
    </edge>
    <edge id=":1076335563_0" function="internal">
        <lane id=":1076335563_0_0" index="0" allow="rail" speed="44.44" length="32.56" shape="7553.35,1449.69 7547.08,1481.64"/>
    </edge>
    <edge id=":1076335563_1" function="internal">
        <lane id=":1076335563_1_0" index="0" allow="rail" speed="44.44" length="30.27" shape="7549.93,1451.50 7547.08,1481.64"/>
    </edge>
    <edge id=":1076335581_0" function="internal">
        <lane id=":1076335581_0_0" index="0" allow="rail" speed="0.10" length="0.10" shape="7570.61,1368.27 7570.61,1368.27"/>
    </edge>
    <edge id=":1076335588_0" function="internal" bidi=":1076335588_2">
        <lane id=":1076335588_0_0" index="0" allow="rail" speed="44.44" length="34.43" shape="7547.57,1503.25 7545.76,1509.80 7543.03,1519.86 7540.38,1529.95 7538.85,1536.56"/>
    </edge>
    <edge id=":1076335588_1" function="internal">
        <lane id=":1076335588_1_0" index="0" allow="rail" speed="44.44" length="34.13" shape="7538.85,1536.56 7544.23,1502.86"/>
    </edge>
    <edge id=":1076335588_2" function="internal" bidi=":1076335588_0">
        <lane id=":1076335588_2_0" index="0" allow="rail" speed="44.44" length="34.43" shape="7538.85,1536.56 7540.38,1529.95 7543.03,1519.86 7545.76,1509.80 7547.57,1503.25"/>
    </edge>
    <edge id=":1076335593_0" function="internal">
        <lane id=":1076335593_0_0" index="0" allow="rail" speed="0.10" length="0.10" shape="7499.78,1546.87 7499.78,1546.87"/>
    </edge>
    <edge id=":1076335610_0" function="internal">
        <lane id=":1076335610_0_0" index="0" allow="rail" speed="0.10" length="0.10" shape="7540.19,1206.32 7540.19,1206.32"/>
    </edge>
    <edge id=":1076335618_0" function="internal">
        <lane id=":1076335618_0_0" index="0" allow="rail" speed="44.44" length="33.17" shape="7497.95,1363.82 7500.17,1357.62 7503.85,1348.33 7507.64,1339.08 7510.17,1332.99"/>
    </edge>
    <edge id=":1076335618_1" function="internal">
        <lane id=":1076335618_1_0" index="0" allow="rail" speed="44.44" length="33.25" shape="7501.04,1364.96 7502.67,1358.55 7505.30,1348.88 7508.09,1339.25 7510.17,1332.99"/>
    </edge>
    <edge id=":1076335620_0" function="internal">
        <lane id=":1076335620_0_0" index="0" allow="rail" speed="44.44" length="26.26" shape="7540.84,1358.69 7539.15,1332.48"/>
    </edge>
    <edge id=":1076335620_1" function="internal">
        <lane id=":1076335620_1_0" index="0" allow="rail" speed="44.44" length="26.30" shape="7537.52,1358.72 7537.98,1353.22 7538.62,1345.60 7539.12,1337.98 7539.15,1332.48"/>
    </edge>
    <edge id=":1076335621_0" function="internal">
        <lane id=":1076335621_0_0" index="0" allow="rail" speed="0.10" length="0.10" shape="7462.06,1506.13 7462.06,1506.13"/>
    </edge>
    <edge id=":1076335622_0" function="internal">
        <lane id=":1076335622_0_0" index="0" allow="rail" speed="44.44" length="2.93" shape="7520.45,1307.96 7520.86,1307.19 7521.13,1306.66 7521.37,1306.12 7521.70,1305.31"/>
    </edge>
    <edge id=":1076335622_1" function="internal">
        <lane id=":1076335622_1_0" index="0" allow="rail" speed="44.44" length="2.93" shape="7520.59,1308.02 7521.70,1305.31"/>
    </edge>
    <edge id=":1076335626_0" function="internal">
        <lane id=":1076335626_0_0" index="0" allow="rail" speed="44.44" length="33.02" shape="7535.45,1321.37 7533.94,1354.35"/>
    </edge>
    <edge id=":1076335626_1" function="internal">
        <lane id=":1076335626_1_0" index="0" allow="rail" speed="44.44" length="33.02" shape="7535.45,1321.37 7534.72,1327.89 7533.29,1337.73 7531.73,1347.56 7530.67,1354.04"/>
    </edge>
    <edge id=":1076335626_2" function="internal" bidi=":1076335626_3">
        <lane id=":1076335626_2_0" index="0" allow="rail" speed="3.84" length="4.64" shape="7530.67,1354.04 7531.33,1353.07 7532.49,1352.84 7533.55,1353.28 7533.94,1354.35"/>
    </edge>
    <edge id=":1076335626_3" function="internal" bidi=":1076335626_2">
        <lane id=":1076335626_3_0" index="0" allow="rail" speed="11.58" length="58.35" shape="7533.94,1354.35 7536.14,1332.64 7536.32,1325.36 7534.50,1332.49 7530.67,1354.04"/>
    </edge>
    <edge id=":1076335634_0" function="internal">
        <lane id=":1076335634_0_0" index="0" allow="rail" speed="44.44" length="30.96" shape="7552.19,1420.42 7549.94,1451.30"/>
    </edge>
    <edge id=":1076335634_1" function="internal">
        <lane id=":1076335634_1_0" index="0" allow="rail" speed="44.44" length="33.33" shape="7552.19,1420.42 7551.29,1426.97 7549.54,1436.86 7547.68,1446.74 7546.43,1453.24"/>
    </edge>
    <edge id=":1076335634_2" function="internal">
        <lane id=":1076335634_2_0" index="0" allow="rail" speed="4.12" length="5.53" shape="7546.43,1453.24 7547.18,1451.70 7548.40,1450.62 7549.52,1450.36 7549.94,1451.30"/>
    </edge>
    <edge id=":1076335652_0" function="internal">
        <lane id=":1076335652_0_0" index="0" allow="rail" speed="0.10" length="0.10" shape="7496.21,1661.99 7496.21,1661.99"/>
    </edge>
    <edge id=":1076335661_0" function="internal">
        <lane id=":1076335661_0_0" index="0" allow="rail" speed="0.10" length="0.10" shape="7498.76,1673.86 7498.76,1673.86"/>
    </edge>
    <edge id=":1076335668_0" function="internal">
        <lane id=":1076335668_0_0" index="0" allow="rail" speed="0.10" length="0.10" shape="7483.08,1529.46 7483.08,1529.46"/>
    </edge>
    <edge id=":1076335727_0" function="internal">
        <lane id=":1076335727_0_0" index="0" allow="rail" speed="44.44" length="34.39" shape="7505.57,1367.78 7515.16,1334.75"/>
    </edge>
    <edge id=":1076335727_1" function="internal">
        <lane id=":1076335727_1_0" index="0" allow="rail" speed="44.44" length="34.45" shape="7508.78,1368.60 7509.92,1361.91 7511.77,1351.63 7513.72,1341.38 7515.16,1334.75"/>
    </edge>
    <edge id=":1076335728_0" function="internal">
        <lane id=":1076335728_0_0" index="0" allow="rail" speed="44.44" length="3.00" shape="7512.30,1377.64 7511.84,1380.60"/>
    </edge>
    <edge id=":1076335728_1" function="internal">
        <lane id=":1076335728_1_0" index="0" allow="rail" speed="0.10" length="0.10" shape="7511.84,1380.60 7511.84,1380.60"/>
    </edge>
    <edge id=":1076335734_0" function="internal">
        <lane id=":1076335734_0_0" index="0" allow="rail" speed="3.92" length="4.78" shape="7541.43,1314.03 7541.85,1312.90 7542.93,1312.40 7544.10,1312.60 7544.80,1313.57"/>
    </edge>
    <edge id=":1076335734_1" function="internal">
        <lane id=":1076335734_1_0" index="0" allow="rail" speed="44.44" length="26.32" shape="7539.68,1287.76 7540.50,1293.21 7542.00,1300.70 7543.63,1308.17 7544.80,1313.57"/>
    </edge>
    <edge id=":1076335734_2" function="internal">
        <lane id=":1076335734_2_0" index="0" allow="rail" speed="44.44" length="26.33" shape="7539.68,1287.76 7541.43,1314.03"/>
    </edge>
    <edge id=":1076335741_0" function="internal">
        <lane id=":1076335741_0_0" index="0" allow="rail" speed="0.10" length="0.10" shape="7486.87,1533.89 7486.87,1533.89"/>
    </edge>
    <edge id=":1076335750_0" function="internal">
        <lane id=":1076335750_0_0" index="0" allow="rail" speed="44.44" length="19.59" shape="7533.73,1270.50 7531.26,1289.93"/>
    </edge>
    <edge id=":1076335750_1" function="internal">
        <lane id=":1076335750_1_0" index="0" allow="rail" speed="44.44" length="19.59" shape="7533.73,1270.50 7532.67,1274.83 7531.06,1279.90 7529.31,1284.95 7527.86,1289.18"/>
    </edge>
    <edge id=":1076335754_0" function="internal">
        <lane id=":1076335754_0_0" index="0" allow="rail" speed="0.10" length="0.10" shape="7519.19,1657.51 7519.19,1657.51"/>
    </edge>
    <edge id=":1076335763_0" function="internal">
        <lane id=":1076335763_0_0" index="0" allow="rail" speed="0.10" length="0.10" shape="7466.77,1511.86 7466.77,1511.86"/>
    </edge>
    <edge id=":1076335764_0" function="internal">
        <lane id=":1076335764_0_0" index="0" allow="rail" speed="2.93" length="1.81" shape="7544.66,1499.83 7544.59,1500.49 7544.62,1500.72 7544.73,1500.51 7544.94,1499.87"/>
    </edge>
    <edge id=":1076335764_1" function="internal">
        <lane id=":1076335764_1_0" index="0" allow="rail" speed="44.44" length="2.77" shape="7544.28,1502.56 7544.42,1501.75 7544.54,1501.20 7544.70,1500.66 7544.94,1499.87"/>
    </edge>
    <edge id=":1076335790_0" function="internal">
        <lane id=":1076335790_0_0" index="0" allow="rail" speed="0.10" length="0.10" shape="7491.26,1537.13 7491.26,1537.13"/>
    </edge>
    <edge id=":1077657224_0" function="internal">
        <lane id=":1077657224_0_0" index="0" allow="private pedestrian passenger delivery bicycle" speed="5.56" length="14.43" shape="7225.94,1028.34 7222.42,1029.45 7219.06,1030.66 7215.87,1032.20 7212.88,1034.26"/>
    </edge>
    <edge id=":1077657224_1" function="internal">
        <lane id=":1077657224_1_0" index="0" allow="private pedestrian passenger delivery bicycle" speed="5.56" length="18.97" shape="7225.94,1028.34 7219.88,1029.52 7216.40,1028.46 7215.49,1025.18 7217.16,1019.67"/>
    </edge>
    <edge id=":1077657224_2" function="internal">
        <lane id=":1077657224_2_0" index="0" allow="private pedestrian passenger delivery bicycle" speed="3.86" length="5.10" shape="7225.94,1028.34 7224.41,1027.94 7223.72,1027.25 7223.85,1026.28 7224.81,1025.03"/>
    </edge>
    <edge id=":1077657224_3" function="internal">
        <lane id=":1077657224_3_0" index="0" allow="private pedestrian passenger delivery bicycle" speed="5.56" length="11.89" shape="7220.27,1020.60 7218.99,1024.40 7219.32,1026.41 7221.26,1026.62 7224.81,1025.03"/>
    </edge>
    <edge id=":1077657224_4" function="internal">
        <lane id=":1077657224_4_0" index="0" allow="private pedestrian passenger delivery bicycle" speed="5.56" length="15.67" shape="7220.27,1020.60 7218.80,1024.21 7217.26,1027.95 7215.37,1031.42 7212.88,1034.26"/>
    </edge>
    <edge id=":1077657224_5" function="internal">
        <lane id=":1077657224_5_0" index="0" allow="private pedestrian passenger delivery bicycle" speed="3.67" length="4.74" shape="7220.27,1020.60 7219.15,1021.53 7218.26,1021.69 7217.59,1021.07 7217.16,1019.67"/>
    </edge>
    <edge id=":1077657224_6" function="internal">
        <lane id=":1077657224_6_0" index="0" allow="private pedestrian passenger delivery bicycle" speed="5.56" length="13.83" shape="7210.82,1031.77 7213.16,1029.19 7214.68,1026.25 7215.86,1023.04 7217.16,1019.67"/>
    </edge>
    <edge id=":1077657224_7" function="internal">
        <lane id=":1077657224_7_0" index="0" allow="private pedestrian passenger delivery bicycle" speed="5.56" length="15.57" shape="7210.82,1031.77 7214.03,1029.73 7217.64,1028.15 7221.34,1026.69 7224.81,1025.03"/>
    </edge>
    <edge id=":1077657230_0" function="internal">
        <lane id=":1077657230_0_0" index="0" allow="private pedestrian passenger delivery bicycle" speed="3.65" length="4.67" shape="7264.89,1020.75 7266.33,1020.81 7267.09,1021.29 7267.16,1022.18 7266.55,1023.49"/>
    </edge>
    <edge id=":1077657294_0" function="internal">