<?xml version="1.0" encoding="UTF-8"?>

<!-- generated on 2022-09-26 16:21:34 by Eclipse SUMO polyconvert Version 1.14.0
<configuration xmlns:xsi="http://www.w3.org/2001/XMLSchema-instance" xsi:noNamespaceSchemaLocation="http://sumo.dlr.de/xsd/polyconvertConfiguration.xsd">

    <input>
        <net-file value="osm.net.xml"/>
        <osm-files value="osm_bbox.osm.xml.gz"/>
        <osm.keep-full-type value="true"/>
        <type-file value="/usr/share/sumo/data/typemap/osmPolyconvert.typ.xml"/>
    </input>

    <output>
        <output-file value="osm.poly.xml"/>
    </output>

    <report>
        <verbose value="true"/>
    </report>

</configuration>
-->

<additional xmlns:xsi="http://www.w3.org/2001/XMLSchema-instance" xsi:noNamespaceSchemaLocation="http://sumo.dlr.de/xsd/additional_file.xsd">
    <location netOffset="-473352.39,-4501520.14" convBoundary="-7059.16,-3454.85,9031.74,8766.15" origBoundary="14.600907,40.628585,14.791594,40.743093" projParameter="+proj=utm +zone=33 +ellps=WGS84 +datum=WGS84 +units=m +no_defs"/>


<poly id="1001198067" type="amenity.parking" color="184,184,179" fill="1" layer="-1.00" shape="5673.741814,1304.897614 5717.800952,1323.832791 5714.673056,1332.499937 5712.531571,1343.317788 5711.178239,1354.910449 5711.217030,1368.674870 5672.312376,1358.361312 5673.097915,1355.217672 5657.681037,1348.578757 5673.741814,1304.897614"/>
    <poly id="103494310" type="building.public" color="255,230,230" fill="1" layer="-1.00" shape="6298.592794,1544.705028 6286.866861,1549.266132 6281.820159,1536.403472 6350.166805,1509.797399 6362.089703,1540.191096 6305.460754,1562.235991 6298.592794,1544.705028"/>
    <poly id="103494312" type="building.yes" color="255,230,230" fill="1" layer="-1.00" shape="6334.770782,1634.064347 6329.347232,1606.960838 6358.781917,1594.625515 6369.606371,1625.144332 6334.770782,1634.064347"/>
    <poly id="1075876238" type="building.ruins" color="255,230,230" fill="1" layer="-1.00" shape="7504.807673,2015.575443 7504.789224,2024.811042 7516.721163,2024.780299 7516.510809,2015.289979 7504.807673,2015.575443"/>
    <poly id="109259597" type="building.yes" color="255,230,230" fill="1" layer="-1.00" shape="5937.690253,1531.627072 5942.276299,1576.082608 5991.928126,1570.871484 5988.504986,1546.382356 5937.690253,1531.627072"/>
    <poly id="109259979" type="amenity.townhall" color="237,199,199" fill="1" layer="-1.00" shape="5999.162047,1549.549649 6007.991165,1603.517600 6035.641141,1602.985709 6049.234832,1601.593750 6076.416908,1593.836929 6064.293000,1555.340926 6045.606657,1554.904308 6035.106350,1556.443095 6017.806024,1552.983384 5999.162047,1549.549649"/>
    <poly id="109259979#1" type="building.yes" color="255,230,230" fill="1" layer="-1.00" shape="5999.162047,1549.549649 6007.991165,1603.517600 6035.641141,1602.985709 6049.234832,1601.593750 6076.416908,1593.836929 6064.293000,1555.340926 6045.606657,1554.904308 6035.106350,1556.443095 6017.806024,1552.983384 5999.162047,1549.549649"/>
    <poly id="109259984" type="building.yes" color="255,230,230" fill="1" layer="-1.00" shape="6077.342363,1558.768113 6086.036346,1588.548694 6139.935674,1569.884185 6134.783397,1555.601060 6121.765097,1557.290983 6095.019196,1557.820051 6077.342363,1558.768113"/>
    <poly id="109260125" type="amenity.parking" color="184,184,179" fill="1" layer="-1.00" shape="5950.473117,1612.258268 5998.406744,1606.175038 5993.392669,1574.819164 5943.366368,1579.076686 5950.473117,1612.258268"/>
    <poly id="109260649" type="building.school" color="255,230,230" fill="1" layer="-1.00" shape="5745.285320,1501.362270 5748.106642,1524.920546 5761.860338,1523.294503 5760.934426,1515.593407 5831.156044,1507.248585 5832.142534,1515.482339 5847.932266,1513.606541 5845.015996,1489.227064 5829.268468,1491.102750 5829.735865,1495.042092 5760.806728,1503.238988 5760.365428,1499.577086 5745.285320,1501.362270"/>
    <poly id="109260652" type="building.yes" color="255,230,230" fill="1" layer="-1.00" shape="5705.869183,1492.215523 5727.028202,1515.355804 5728.620284,1528.527532 5694.397963,1533.053054 5689.395598,1494.337761 5705.869183,1492.215523"/>
    <poly id="109261044" type="building.yes" color="255,230,230" fill="1" layer="-1.00" shape="5709.185782,1472.569513 5719.647424,1484.284288 5753.798662,1478.438134 5753.959845,1475.651472 5761.051606,1470.103516 5750.563440,1457.955840 5752.805639,1455.895954 5740.657472,1442.487513 5730.714392,1452.872203 5743.956396,1467.576301 5728.723359,1469.095538 5721.536349,1461.822797 5709.185782,1472.569513"/>
    <poly id="109261163" type="amenity.theatre" color="237,199,199" fill="1" layer="-1.00" shape="5893.937940,1491.798733 5892.809802,1508.463629 5915.740956,1509.709447 5917.098560,1493.487932 5893.937940,1491.798733"/>
    <poly id="109261163#1" type="building.yes" color="255,230,230" fill="1" layer="-1.00" shape="5893.937940,1491.798733 5892.809802,1508.463629 5915.740956,1509.709447 5917.098560,1493.487932 5893.937940,1491.798733"/>
    <poly id="109261163#2" type="tourism.attraction" color="207,245,201" fill="1" layer="-2.00" shape="5893.937940,1491.798733 5892.809802,1508.463629 5915.740956,1509.709447 5917.098560,1493.487932 5893.937940,1491.798733"/>
    <poly id="109261164" type="building.yes" color="255,230,230" fill="1" layer="-1.00" shape="6382.201196,1778.018351 6413.356902,1777.234089 6420.995852,1777.046777 6420.947385,1777.868341 6420.343873,1788.992614 6419.821030,1798.706913 6418.235398,1827.772155 6379.444612,1823.870645 6378.083094,1823.519147 6382.201196,1778.018351"/>
    <poly id="109261164#1" type="tourism.museum" color="207,245,201" fill="1" layer="-2.00" shape="6382.201196,1778.018351 6413.356902,1777.234089 6420.995852,1777.046777 6420.947385,1777.868341 6420.343873,1788.992614 6419.821030,1798.706913 6418.235398,1827.772155 6379.444612,1823.870645 6378.083094,1823.519147 6382.201196,1778.018351"/>
    <poly id="109261268" type="building.yes" color="255,230,230" fill="1" layer="-1.00" shape="5613.029628,1493.565664 5635.359263,1491.260183 5634.177869,1479.929985 5611.848200,1482.235469 5613.029628,1493.565664"/>
    <poly id="109261283" type="building.yes" color="255,230,230" fill="1" layer="-1.00" shape="5615.924261,1453.318406 5617.393682,1464.880895 5622.386479,1464.245138 5624.279443,1479.147659 5635.168997,1477.773698 5631.798206,1451.308705 5615.924261,1453.318406"/>
    <poly id="109261324" type="building.public" color="255,230,230" fill="1" layer="-1.00" shape="5572.231317,1536.473465 5573.482967,1545.727675 5624.760949,1538.800016 5623.319733,1528.236484 5604.616300,1530.753738 5604.279669,1528.268194 5605.605966,1528.086831 5604.492619,1519.908966 5603.377500,1520.056430 5603.049508,1517.637465 5622.487957,1515.029324 5621.020627,1504.199456 5567.714806,1511.354901 5569.147779,1521.962848 5589.498531,1519.218826 5590.024990,1523.080284 5587.718728,1523.386534 5588.581760,1529.711334 5590.778190,1529.416496 5591.390888,1533.888234 5572.231317,1536.473465"/>
    <poly id="109261376" type="building.yes" color="255,230,230" fill="1" layer="-1.00" shape="5650.257155,1619.350348 5654.409350,1650.242219 5686.442033,1645.611683 5683.106685,1622.632098 5650.257155,1619.350348"/>
    <poly id="109261505" type="building.yes" color="255,230,230" fill="1" layer="-1.00" shape="5689.163679,1771.571734 5690.901627,1782.522960 5723.879936,1783.784244 5726.371341,1786.230423 5734.653238,1786.295904 5735.849860,1770.085900 5689.163679,1771.571734"/>
    <poly id="109261524" type="building.yes" color="255,230,230" fill="1" layer="-1.00" shape="5774.080290,1727.719016 5821.276287,1745.202930 5827.577188,1728.923132 5814.857612,1719.479024 5818.015245,1715.407410 5822.102026,1717.205322 5827.993435,1717.632824 5835.219746,1705.879416 5826.587315,1701.385731 5790.741311,1690.197153 5774.080290,1727.719016"/>
    <poly id="109261626" type="building.yes" color="255,230,230" fill="1" layer="-1.00" shape="6354.191058,1946.521657 6363.899298,1949.092640 6368.119145,1950.202261 6371.147155,1938.816051 6380.098246,1908.565146 6380.500085,1907.176496 6367.351615,1904.315172 6359.115367,1930.190569 6356.872073,1938.044703 6354.191058,1946.521657"/>
    <poly id="109262286" type="building.yes" color="255,230,230" fill="1" layer="-1.00" shape="6152.038208,1931.558317 6150.255963,1941.043005 6168.392195,1944.600619 6170.905673,1936.734582 6152.038208,1931.558317"/>
    <poly id="109262287" type="building.ruins" color="255,230,230" fill="1" layer="-1.00" shape="6170.905673,1936.734582 6182.535450,1903.656540 6227.655411,1919.849997 6208.144514,1966.447779 6168.198872,1948.042287 6168.392195,1944.600619 6170.905673,1936.734582"/>
    <poly id="109262288" type="building.yes" color="255,230,230" fill="1" layer="-1.00" shape="6325.335516,1944.546971 6323.997252,1952.687250 6342.207270,1955.456955 6363.130994,1958.630009 6363.477994,1952.634828 6363.607017,1950.369988 6325.335516,1944.546971"/>
    <poly id="109262289" type="building.yes" color="255,230,230" fill="1" layer="-1.00" shape="6203.809244,2009.373989 6209.387303,1991.220528 6247.495134,2002.116295 6244.417521,2013.824606 6221.271113,2013.610714 6217.161868,2012.767283 6203.809244,2009.373989"/>
    <poly id="109262290" type="building.yes" color="255,230,230" fill="1" layer="-1.00" shape="6253.355260,1920.456514 6265.559588,1921.077940 6267.838436,1876.936369 6255.634006,1876.303839 6254.951692,1892.490142 6253.355260,1920.456514"/>
    <poly id="109262291" type="building.yes" color="255,230,230" fill="1" layer="-1.00" shape="6236.293143,1911.079114 6247.607525,1913.812039 6251.318251,1898.760762 6221.239444,1891.472732 6220.035374,1871.550767 6219.543556,1867.866776 6209.996616,1868.692270 6211.461038,1900.302272 6237.225630,1905.992554 6236.293143,1911.079114"/>
    <poly id="109262292" type="building.yes" color="255,230,230" fill="1" layer="-1.00" shape="6132.950115,1926.060795 6131.586493,1934.123477 6151.805427,1936.010233 6152.882458,1928.203656 6132.950115,1926.060795"/>
    <poly id="109372679" type="building.yes" color="255,230,230" fill="1" layer="-1.00" shape="5816.193541,1656.447019 5819.131275,1685.455312 5837.251190,1682.906929 5833.858271,1654.288420 5816.193541,1656.447019"/>
    <poly id="109372725" type="building.yes" color="255,230,230" fill="1" layer="-1.00" shape="5857.561510,1756.423727 5857.431518,1770.366235 5912.683973,1770.900022 5912.814007,1756.935314 5857.561510,1756.423727"/>
    <poly id="109372788" type="building.yes" color="255,230,230" fill="1" layer="-1.00" shape="6420.769471,1448.719003 6426.176673,1463.689853 6453.797739,1452.325588 6447.865622,1436.989832 6420.769471,1448.719003"/>
    <poly id="109372789" type="building.yes" color="255,230,230" fill="1" layer="-1.00" shape="6386.684218,1463.497747 6392.282916,1477.391310 6419.380974,1466.416858 6414.050786,1451.801016 6386.684218,1463.497747"/>
    <poly id="109372848" type="building.apartments" color="255,230,230" fill="1" layer="-1.00" shape="6455.903061,1434.037470 6461.606684,1449.262849 6493.761464,1436.188052 6487.263497,1420.964804 6455.903061,1434.037470"/>
    <poly id="109372945" type="building.yes" color="255,230,230" fill="1" layer="-1.00" shape="6544.372675,1416.514178 6577.540373,1402.881983 6570.130661,1384.841621 6537.184156,1399.039371 6544.372675,1416.514178"/>
    <poly id="109372946" type="building.yes" color="255,230,230" fill="1" layer="-1.00" shape="6500.946901,1433.804172 6533.414086,1420.573294 6526.438115,1403.575239 6493.970868,1416.806147 6500.946901,1433.804172"/>
    <poly id="109373057" type="building.yes" color="255,230,230" fill="1" layer="-1.00" shape="6620.705953,1364.180432 6629.086348,1384.948931 6671.794833,1367.839226 6663.406088,1347.070703 6620.705953,1364.180432"/>
    <poly id="109373058" type="building.yes" color="255,230,230" fill="1" layer="-1.00" shape="6725.998720,1316.642851 6735.928261,1341.614372 6754.020137,1334.483837 6755.024122,1337.000943 6789.266213,1323.500028 6788.338773,1321.160320 6804.919557,1314.622271 6794.922100,1289.462134 6725.998720,1316.642851"/>
    <poly id="109373059" type="building.yes" color="255,230,230" fill="1" layer="-1.00" shape="6576.516044,1383.470115 6583.833260,1401.688340 6613.422734,1389.886441 6606.105580,1371.668187 6576.516044,1383.470115"/>
    <poly id="109373060" type="building.yes" color="255,230,230" fill="1" layer="-1.00" shape="6676.388669,1366.494825 6731.206174,1345.567678 6721.478588,1320.273710 6707.134621,1325.751402 6706.338065,1324.954310 6682.158583,1334.210399 6682.584124,1335.319297 6666.728979,1341.367250 6676.388669,1366.494825"/>
    <poly id="109373076" type="building.yes" color="255,230,230" fill="1" layer="-1.00" shape="6816.575559,1315.268273 6854.848998,1301.723601 6843.158878,1269.263837 6826.562953,1276.512267 6827.137033,1279.452345 6823.507506,1281.149293 6822.368731,1278.787943 6805.500955,1285.493225 6816.575559,1315.268273"/>
    <poly id="109373077" type="building.yes" color="255,230,230" fill="1" layer="-1.00" shape="6850.656741,1263.504939 6861.393147,1293.280953 6896.152277,1280.200973 6885.412095,1248.959665 6850.656741,1263.504939"/>
    <poly id="109373127" type="building.yes" color="255,230,230" fill="1" layer="-1.00" shape="6984.500378,1209.312478 6999.832947,1248.334268 7040.452035,1233.085992 7026.771594,1192.350292 6984.500378,1209.312478"/>
    <poly id="109373129" type="building.yes" color="255,230,230" fill="1" layer="-1.00" shape="6896.750638,1244.600351 6909.704691,1278.899507 6943.535395,1266.221832 6930.581477,1231.922618 6896.750638,1244.600351"/>
    <poly id="109373131" type="building.yes" color="255,230,230" fill="1" layer="-1.00" shape="6947.228873,1221.699375 6960.249038,1258.695842 6992.627358,1246.421856 6978.243057,1208.063594 6947.228873,1221.699375"/>
    <poly id="109373134" type="building.yes" color="255,230,230" fill="1" layer="-1.00" shape="7047.375264,1230.481327 7095.716380,1214.202848 7076.065637,1165.579282 7073.230162,1167.174111 7072.661230,1166.154372 7063.723148,1170.695795 7063.954027,1171.716425 7044.817740,1180.458515 7043.911044,1179.550673 7034.962464,1183.304030 7035.193932,1184.546665 7030.027721,1186.835889 7047.375264,1230.481327"/>
    <poly id="109373273" type="amenity.parking" color="184,184,179" fill="1" layer="-1.00" shape="7176.513937,1115.196995 7199.606247,1171.182482 7250.491175,1151.368428 7251.703710,1149.655799 7252.000744,1146.891022 7251.772894,1143.783502 7250.928179,1140.710894 7247.791008,1133.592622 7250.754319,1132.386040 7252.451282,1131.704485 7233.892440,1089.871113 7231.257552,1093.863045 7228.041826,1092.272991 7224.530385,1090.717012 7226.481806,1087.148680 7176.513937,1115.196995"/>
    <poly id="109373274" type="building.yes" color="255,230,230" fill="1" layer="-1.00" shape="7105.511153,1156.232928 7107.340956,1161.078995 7106.321903,1162.435926 7107.181096,1164.564945 7098.831403,1167.894833 7108.671938,1188.349206 7099.940997,1191.313782 7087.493105,1166.015405 7105.511153,1156.232928"/>
    <poly id="109373275" type="building.yes" color="255,230,230" fill="1" layer="-1.00" shape="7111.800513,1176.086124 7142.707708,1163.361549 7139.735943,1154.899738 7141.323315,1154.329449 7135.736946,1141.467641 7127.810891,1145.218200 7127.013195,1143.977050 7113.433624,1151.128105 7113.665663,1152.592749 7105.511153,1156.232928 7107.340956,1161.078995 7106.321903,1162.435926 7107.181096,1164.564945 7111.800513,1176.086124"/>
    <poly id="109373276" type="building.yes" color="255,230,230" fill="1" layer="-1.00" shape="7169.242871,1185.048737 7185.545831,1178.678778 7162.625552,1123.869525 7148.028622,1133.054560 7169.242871,1185.048737"/>
    <poly id="109373318" type="building.yes" color="255,230,230" fill="1" layer="-1.00" shape="7246.666779,1091.447304 7270.981563,1146.464080 7319.666711,1125.590601 7301.948338,1085.064723 7301.923961,1078.948461 7297.609814,1067.726083 7274.420540,1078.109894 7263.423551,1083.988492 7258.314651,1085.622483 7246.666779,1091.447304"/>
    <poly id="109373319" type="building.yes" color="255,230,230" fill="1" layer="-1.00" shape="7242.169900,1087.951318 7288.818589,1060.611422 7293.712553,1057.568261 7291.663513,1052.878126 7290.143576,1053.392705 7286.208875,1041.847433 7277.068402,1046.666634 7277.592857,1050.084192 7236.911727,1074.500258 7242.169900,1087.951318"/>
    <poly id="109373528" type="building.yes" color="255,230,230" fill="1" layer="-1.00" shape="7381.660424,1018.898973 7377.244076,1020.375680 7377.128692,1021.508221 7374.071601,1022.426384 7368.863147,1024.804284 7377.994015,1048.835178 7392.035383,1043.603783 7394.203374,1048.560047 7415.606301,1040.157108 7413.278347,1035.434361 7428.492430,1029.389670 7416.966966,997.694533 7410.625714,999.975431 7410.737912,1000.874274 7406.658747,1002.017078 7406.889555,1003.026617 7402.363926,1004.736700 7405.216812,1013.076817 7406.120838,1012.963471 7406.583660,1015.448764 7404.995951,1015.907992 7404.086060,1013.756870 7398.995077,1015.812532 7399.217434,1016.822093 7394.692103,1018.643185 7389.939159,1020.686877 7389.709213,1020.010348 7385.969878,1021.829408 7382.803463,1022.958758 7381.660424,1018.898973"/>
    <poly id="109373529" type="building.yes" color="255,230,230" fill="1" layer="-1.00" shape="7317.584485,1078.896600 7330.602521,1073.434642 7329.002505,1069.154045 7332.742697,1067.679067 7334.104249,1068.008539 7373.050770,1052.444532 7372.245474,1048.261768 7370.645188,1043.870159 7368.709144,1040.367454 7363.052803,1042.757620 7359.286801,1034.297786 7354.989681,1036.118309 7355.330365,1037.127561 7351.707609,1038.269211 7351.820131,1039.290156 7347.969763,1040.654406 7350.252641,1047.530729 7323.987354,1058.099981 7322.622565,1056.527272 7318.662631,1058.002827 7318.665865,1059.246064 7315.380290,1060.042742 7315.383236,1061.174976 7311.870656,1062.427362 7312.780251,1064.456370 7311.422192,1065.470041 7317.584485,1078.896600"/>
    <poly id="109373530" type="building.yes" color="255,230,230" fill="1" layer="-1.00" shape="7436.874933,1005.946135 7448.516070,1000.676653 7447.113131,997.416759 7450.321393,996.120822 7451.248319,998.327408 7461.372440,994.704726 7454.158065,976.352189 7429.759102,989.769046 7436.874933,1005.946135"/>
    <poly id="109373748" type="building.yes" color="255,230,230" fill="1" layer="-1.00" shape="7449.533404,1037.871484 7510.074624,1015.947400 7500.535523,990.774057 7488.386211,995.645153 7494.234389,1008.628649 7456.633810,1021.935158 7451.844371,1009.859189 7440.631548,1014.073020 7449.533404,1037.871484"/>
    <poly id="109373750" type="building.yes" color="255,230,230" fill="1" layer="-1.00" shape="7459.536859,1069.359696 7523.117246,1046.206823 7515.990408,1025.667220 7507.005599,1028.643069 7507.448837,1033.381800 7460.129576,1050.154462 7458.430419,1046.728825 7452.181418,1048.720839 7459.536859,1069.359696"/>
    <poly id="120468283" type="natural.coastline" color="140,196,107" fill="0" layer="-4.00" shape="4256.467510,698.321324 4305.358242,696.997512 4363.322143,694.248151 4429.608595,690.597420 4451.071370,680.343081 4481.331212,669.574139 4740.875829,595.130900 4861.464212,555.580777 4930.073704,519.181466 4975.332389,492.164113 5016.907135,459.651953 5226.407026,246.494331 5245.149820,250.691788 5259.992427,268.332016 5242.369093,285.954711 5220.968644,295.140923 5180.203176,339.238417 5058.282811,460.319761 5042.767028,475.727835 4997.624904,519.661475 4931.103885,556.442571 4836.230124,600.134198 4852.056544,633.233626 4795.086375,666.580119 4539.781495,816.003375 4653.317034,1010.800910 4980.700236,817.046748 5079.928557,902.775256 5077.028932,911.275500 4974.758202,1210.951720 4955.562290,1262.091939 5185.771388,1345.142795 5316.365046,984.890769 5381.885458,1006.703990 5267.151950,1387.511599 5283.817757,1437.493307 5299.127957,1483.416191 5312.194834,1489.828003 5343.185366,1487.041656 5346.137917,1482.237802 5352.510168,1482.286135 5352.836456,1489.977800 5356.714574,1489.655872 5378.428685,1487.862003 5396.108693,1485.036295 5407.021464,1479.976589 5405.685141,1473.697564 5407.525083,1472.859771 5422.511306,1467.799542 5423.379524,1464.056215 5429.656546,1463.305656 5449.635502,1460.540113 5454.476324,1456.996364 5459.959585,1447.578657 5487.216496,1424.567475 5493.844342,1419.386899 5510.805518,1416.319303 5525.692941,1412.114298 5537.072573,1401.758552 5544.012345,1399.263438 5540.047417,1389.872638 5565.070085,1380.488323 5573.577461,1373.482015 5632.794985,1209.150039 5630.090379,1206.105073 5637.438581,1186.580840 5748.727430,871.336877 5782.990205,883.129133 5736.790362,1014.354981 5763.879354,1038.977228 5776.981041,1024.554266 5796.623421,1003.785729 5838.596181,962.263488 5850.910130,950.140653 5864.184840,937.027214 5877.274135,930.130553 5901.566470,906.685202 5946.794106,859.027068 5502.487758,117.793650 5500.080579,118.433222 5497.595210,118.329291 5495.522311,117.624764 5493.709988,116.408877 5492.285250,114.758972 5491.358359,112.807938 5490.963505,110.688884 5491.143332,108.534893 5491.797292,106.657062 5492.891387,104.988887 5494.349859,103.641586 5479.074202,82.261292 5463.475951,66.354450 5437.246797,42.496780 5400.994561,22.308782 5376.596099,12.099593 5034.072395,-58.110238 5031.998644,-50.356121 5026.182294,-44.822298 5019.621810,-42.294518 5006.884221,-44.921539 5000.288248,-48.776374 4995.595250,-55.156540 4993.965747,-63.210691 4994.987857,-72.149499 4997.212401,-80.359183 5003.618320,-86.627371 5383.870266,-6.902919 5424.534059,9.986676 5455.144062,28.681219 5481.541204,55.135969 5508.321556,82.655362 5956.562475,834.068323 5967.447053,833.582904 5978.777771,838.524363 5981.663742,842.967602 5980.308332,847.922158 5966.672755,859.049415 5986.577309,904.860963 5992.927428,924.135834 5999.892328,960.881060 6003.111951,982.007310 6001.920927,985.285243 5999.815746,988.066198 5996.644097,990.283996 5992.919888,991.348888 5989.293766,991.214664 5985.875846,989.969821 5983.284295,988.045555 5981.316430,985.497932 5980.116421,982.504157 5979.785998,979.174951 5980.410727,975.887489 5981.511400,973.553339 5983.094679,971.528659 5984.486937,970.714457 5977.029120,933.015979 5971.344454,912.951140 5960.732104,883.675577 5953.335162,870.941796 5885.041034,936.103071 5863.891849,959.184471 5843.008401,983.552838 5772.591242,1056.424810 5733.328847,1099.715874 5698.307189,1196.121826 5698.676575,1198.240966 5717.282580,1211.830948 5722.138688,1207.610207 5737.365122,1206.557197 5739.704059,1208.815101 5740.761018,1212.009049 5744.917597,1211.475633 5744.860787,1206.302995 5752.760889,1202.606531 5757.691476,1203.824813 5758.783645,1210.526399 5766.982232,1210.791963 5767.439626,1205.140561 5769.952256,1203.046620 5773.104319,1202.937859 5775.661203,1204.562437 5777.176483,1208.454430 5795.934249,1212.941833 5802.481473,1209.005010 5809.999956,1210.859890 5815.453762,1211.810332 5817.338917,1215.001969 5823.412620,1217.005219 5833.777588,1191.134386 5844.577968,1196.987361 5833.591555,1224.280774 5849.578745,1232.339311 5852.531694,1227.524561 5873.605125,1238.088711 5885.606156,1247.201913 5910.648618,1250.639705 5918.925790,1254.856968 5927.912085,1255.764336 5952.329532,1232.052374 5977.409390,1182.097252 5982.551454,1162.124389 5984.358650,1146.423366 5989.353377,1140.315344 5994.657243,1139.001849 6001.601238,1143.966638 6001.845283,1161.837639 5988.624149,1200.237451 5972.020173,1231.686737 5942.308561,1266.247401 5944.677650,1288.452748 5960.393888,1372.294881 5964.689481,1391.364553 5991.927228,1412.501684 6050.114079,1455.420879 6100.746080,1489.558782 6117.914857,1500.423034 6122.833530,1497.423428 6123.327739,1492.770984 6130.161067,1491.475558 6156.342860,1488.561583 6158.021760,1490.588330 6199.803840,1481.393057 6337.311996,1422.960616 6337.044140,1417.721949 6366.327743,1405.486982 6379.124877,1403.154268 6383.904378,1404.839594 6536.255660,1340.143054 6915.936320,1178.213296 6941.716085,1166.589342 6938.590466,1157.561897 6937.954345,1150.337216 6938.652423,1142.687180 6946.096422,1138.848894 6951.652058,1133.616970 6944.975948,1108.325732 6879.012565,959.211523 6877.293561,951.612316 6881.362729,943.553693 6891.078681,945.426021 6901.223375,955.977743 6942.408984,1055.017263 6947.990326,1053.082091 6955.901109,1072.264831 6963.211286,1068.926437 6954.710091,1050.189270 6976.202640,1040.708086 7062.422806,1004.426174 7082.582703,995.870146 7109.024013,984.788960 7129.159800,976.666039 7127.153358,972.153444 7130.599242,971.245259 7132.063818,975.392964 7144.668474,970.198177 7111.176748,919.579504 7018.027107,838.292524 7011.147725,832.038972 6939.240368,841.809007 6909.324086,846.139876 6908.951993,842.877344 6809.932167,856.039730 6808.929960,863.701688 6798.960357,871.332094 6784.254077,871.249290 6771.526323,861.992284 6767.013194,846.241777 6777.265438,836.845608 6790.246383,833.303175 7023.171205,798.739289 7192.897870,949.258472 7246.331652,911.321869 7266.433552,909.515542 7239.351565,934.362341 7192.182388,963.280159 7218.829466,985.533350 7286.287522,945.540098 7394.729100,886.148653 7397.965965,902.402359 7298.620518,959.294675 7318.599000,991.311747 7391.731722,965.568716 7464.356001,922.744199 7471.701647,916.631116 7477.163333,910.811511 7481.662889,902.241491 7489.513654,888.789756 7507.712127,886.245264 7561.851906,872.297097 7590.515688,867.228343 7777.631403,755.003058 7902.673650,686.685528 8043.672093,603.455630 8327.148472,426.454933"/>
    <poly id="124047881" type="building.yes" color="255,230,230" fill="1" layer="-1.00" shape="6900.984535,2083.781003 6910.644887,2093.912218 6929.185173,2078.067062 6919.413144,2067.247893 6913.984045,2072.124303 6915.425320,2073.896543 6907.206429,2081.511076 6905.165388,2079.818136 6900.984535,2083.781003"/>
    <poly id="124047884" type="building.yes" color="255,230,230" fill="1" layer="-1.00" shape="6951.393568,2122.975974 6969.522011,2136.670252 6972.157738,2133.188835 6974.613929,2135.302511 6978.496123,2130.241533 6974.408676,2127.998972 6975.992240,2126.074403 6956.348711,2111.451689 6951.717214,2117.558106 6954.062651,2119.327955 6951.393568,2122.975974"/>
    <poly id="124047885" type="building.yes" color="255,230,230" fill="1" layer="-1.00" shape="6976.003775,2143.191235 7003.430556,2161.256744 7009.230457,2152.805080 6984.133432,2133.789844 6976.003775,2143.191235"/>
    <poly id="124047886" type="building.yes" color="255,230,230" fill="1" layer="-1.00" shape="6926.437494,2099.853399 6940.419130,2114.380051 6951.504550,2107.468379 6940.584994,2090.902203 6926.437494,2099.853399"/>
    <poly id="124047887" type="building.yes" color="255,230,230" fill="1" layer="-1.00" shape="6921.750930,2132.945126 6922.591282,2143.910119 6925.123988,2149.375905 6940.461399,2165.342013 6958.100954,2150.842469 6934.010391,2125.841602 6921.750930,2132.945126"/>
    <poly id="124048202" type="amenity.place_of_worship" color="237,199,199" fill="1" layer="-1.00" shape="7395.685041,1147.427538 7402.870789,1154.735191 7416.182203,1141.835349 7424.098237,1134.155580 7417.503773,1126.724272 7414.216404,1130.085105 7411.335541,1127.239759 7404.287706,1134.029259 7396.205483,1142.797319 7398.146344,1144.912468 7395.685041,1147.427538"/>
    <poly id="124048202#1" type="building.church" color="255,230,230" fill="1" layer="-1.00" shape="7395.685041,1147.427538 7402.870789,1154.735191 7416.182203,1141.835349 7424.098237,1134.155580 7417.503773,1126.724272 7414.216404,1130.085105 7411.335541,1127.239759 7404.287706,1134.029259 7396.205483,1142.797319 7398.146344,1144.912468 7395.685041,1147.427538"/>
    <poly id="124049454" type="building.apartments" color="255,230,230" fill="1" layer="-1.00" shape="6908.740138,2159.398717 6915.587850,2157.338042 6917.335236,2153.470450 6913.236386,2111.954630 6910.298208,2109.731252 6900.850295,2115.928204 6886.210972,2124.203659 6908.740138,2159.398717"/>
    <poly id="124049462" type="building.apartments" color="255,230,230" fill="1" layer="-1.00" shape="6865.318293,2138.767540 6882.554455,2128.309448 6902.811086,2160.546721 6883.558977,2166.014937 6865.318293,2138.767540"/>
    <poly id="124067649" type="building.yes" color="255,230,230" fill="1" layer="-1.00" shape="7048.698376,2180.329794 7075.223824,2193.180745 7096.051090,2176.142231 7077.392451,2156.732321 7048.698376,2180.329794"/>
    <poly id="124067650" type="building.yes" color="255,230,230" fill="1" layer="-1.00" shape="7011.568890,2161.523835 7012.262309,2164.907632 7036.527411,2179.351783 7042.404694,2174.596383 7025.127672,2153.639996 7011.568890,2161.523835"/>
    <poly id="124078300" type="waterway.river" color="181,209,209" fill="0" layer="-4.00" shape="7610.267477,1728.025540 7618.977958,1687.553305 7622.410773,1668.451797"/>
    <poly id="124078301" type="waterway.river" color="181,209,209" fill="0" layer="-4.00" shape="7555.095662,1051.907888 7549.955011,1037.934590"/>
    <poly id="124078302" type="waterway.river" color="181,209,209" fill="0" layer="-4.00" shape="7499.795721,913.594854 7489.513654,888.789756"/>
    <poly id="124078303" type="waterway.river" color="181,209,209" fill="0" layer="-4.00" shape="7587.801379,1140.172045 7566.021953,1080.918479"/>
    <poly id="124078304" type="waterway.river" color="181,209,209" fill="0" layer="-4.00" shape="7566.021953,1080.918479 7555.095662,1051.907888"/>
    <poly id="124078305" type="waterway.river" color="181,209,209" fill="0" layer="-4.00" shape="7564.821616,1909.878206 7610.267477,1728.025540"/>
    <poly id="124078307" type="waterway.river" color="181,209,209" fill="0" layer="-4.00" shape="7509.569822,938.090463 7499.795721,913.594854"/>
    <poly id="124078309" type="waterway.river" color="181,209,209" fill="0" layer="-4.00" shape="7622.410773,1668.451797 7626.876774,1646.894454"/>
    <poly id="124078310" type="waterway.river" color="181,209,209" fill="0" layer="-4.00" shape="7684.439995,1317.542371 7657.688317,1283.110634"/>
    <poly id="124078311" type="waterway.river" color="181,209,209" fill="0" layer="-4.00" shape="7549.955011,1037.934590 7509.569822,938.090463"/>