<?xml version="1.0" encoding="UTF-8"?>

<!-- generated on 2022-10-24 18:02:36 by Eclipse SUMO netedit Version 1.14.0
<configuration xmlns:xsi="http://www.w3.org/2001/XMLSchema-instance" xsi:noNamespaceSchemaLocation="http://sumo.dlr.de/xsd/netconvertConfiguration.xsd">

    <input>
        <sumo-net-file value="/home/martinaelle/Desktop/ddc_folders/citycentre/salerno_net/osmcars.net.xml"/>
    </input>

    <output>
        <output-file value="/home/martinaelle/Desktop/ddc_folders/citycentre/salerno_net/osmcars.net.xml"/>
        <output.street-names value="true"/>
    </output>

    <processing>
        <geometry.min-radius.fix.railways value="false"/>
        <geometry.max-grade.fix value="false"/>
        <offset.disable-normalization value="true"/>
        <lefthand value="false"/>
    </processing>

    <junctions>
        <no-turnarounds value="true"/>
        <junctions.corner-detail value="5"/>
        <junctions.limit-turn-speed value="5.5"/>
        <rectangular-lane-cut value="false"/>
    </junctions>

    <pedestrian>
        <walkingareas value="false"/>
    </pedestrian>

</configuration>
-->

<net version="1.9" junctionCornerDetail="5" limitTurnSpeed="5.50" xmlns:xsi="http://www.w3.org/2001/XMLSchema-instance" xsi:noNamespaceSchemaLocation="http://sumo.dlr.de/xsd/net_file.xsd">

    <location netOffset="-473352.39,-4501520.14" convBoundary="5322.73,619.93,8179.08,2468.30" origBoundary="14.600907,40.628585,14.791594,40.743093" projParameter="+proj=utm +zone=33 +ellps=WGS84 +datum=WGS84 +units=m +no_defs"/>

    <type id="highway.bridleway" priority="1" numLanes="1" speed="2.78" allow="pedestrian" oneway="1" width="2.00"/>
    <type id="highway.bus_guideway" priority="1" numLanes="1" speed="27.78" allow="bus" oneway="1"/>
    <type id="highway.cycleway" priority="1" numLanes="1" speed="5.56" allow="bicycle" oneway="0" width="1.00"/>
    <type id="highway.footway" priority="1" numLanes="1" speed="2.78" allow="pedestrian" oneway="1" width="2.00"/>
    <type id="highway.ford" priority="1" numLanes="1" speed="2.78" allow="army" oneway="0"/>
    <type id="highway.living_street" priority="2" numLanes="1" speed="2.78" disallow="tram rail_urban rail rail_electric rail_fast ship" oneway="0"/>
    <type id="highway.motorway" priority="14" numLanes="2" speed="39.44" allow="private emergency authority army vip passenger hov taxi bus coach delivery truck trailer motorcycle evehicle custom1 custom2" oneway="1"/>
    <type id="highway.motorway_link" priority="9" numLanes="1" speed="22.22" allow="private emergency authority army vip passenger hov taxi bus coach delivery truck trailer motorcycle evehicle custom1 custom2" oneway="1"/>
    <type id="highway.path" priority="1" numLanes="1" speed="5.56" allow="pedestrian bicycle" oneway="0" width="2.00"/>
    <type id="highway.pedestrian" priority="1" numLanes="1" speed="2.78" allow="pedestrian" oneway="1" width="2.00"/>
    <type id="highway.primary" priority="12" numLanes="2" speed="27.78" disallow="tram rail_urban rail rail_electric rail_fast ship" oneway="0"/>
    <type id="highway.primary_link" priority="7" numLanes="1" speed="22.22" disallow="tram rail_urban rail rail_electric rail_fast ship" oneway="0"/>
    <type id="highway.raceway" priority="15" numLanes="2" speed="83.33" allow="vip" oneway="0"/>
    <type id="highway.residential" priority="3" numLanes="1" speed="13.89" disallow="tram rail_urban rail rail_electric rail_fast ship" oneway="0"/>
    <type id="highway.secondary" priority="11" numLanes="1" speed="27.78" disallow="tram rail_urban rail rail_electric rail_fast ship" oneway="0"/>
    <type id="highway.secondary_link" priority="6" numLanes="1" speed="22.22" disallow="tram rail_urban rail rail_electric rail_fast ship" oneway="0"/>
    <type id="highway.service" priority="1" numLanes="1" speed="5.56" allow="pedestrian delivery bicycle" oneway="0"/>
    <type id="highway.stairs" priority="1" numLanes="1" speed="1.39" allow="pedestrian" oneway="1" width="2.00"/>
    <type id="highway.step" priority="1" numLanes="1" speed="1.39" allow="pedestrian" oneway="1" width="2.00"/>
    <type id="highway.steps" priority="1" numLanes="1" speed="1.39" allow="pedestrian" oneway="1" width="2.00"/>
    <type id="highway.tertiary" priority="10" numLanes="1" speed="22.22" disallow="tram rail_urban rail rail_electric rail_fast ship" oneway="0"/>
    <type id="highway.tertiary_link" priority="5" numLanes="1" speed="22.22" disallow="tram rail_urban rail rail_electric rail_fast ship" oneway="0"/>
    <type id="highway.track" priority="1" numLanes="1" speed="5.56" allow="pedestrian motorcycle moped bicycle" oneway="0"/>
    <type id="highway.trunk" priority="13" numLanes="2" speed="27.78" disallow="pedestrian bicycle tram rail_urban rail rail_electric rail_fast ship" oneway="0"/>
    <type id="highway.trunk_link" priority="8" numLanes="1" speed="22.22" disallow="pedestrian bicycle tram rail_urban rail rail_electric rail_fast ship" oneway="0"/>
    <type id="highway.unclassified" priority="4" numLanes="1" speed="13.89" disallow="tram rail_urban rail rail_electric rail_fast ship" oneway="0"/>
    <type id="highway.unsurfaced" priority="1" numLanes="1" speed="8.33" disallow="tram rail_urban rail rail_electric rail_fast ship" oneway="0"/>
    <type id="railway.highspeed" priority="21" numLanes="1" speed="69.44" allow="rail_fast" oneway="1"/>
    <type id="railway.light_rail" priority="19" numLanes="1" speed="27.78" allow="rail_urban" oneway="1"/>
    <type id="railway.preserved" priority="16" numLanes="1" speed="27.78" allow="rail" oneway="1"/>
    <type id="railway.rail" priority="20" numLanes="1" speed="44.44" allow="rail" oneway="1"/>
    <type id="railway.subway" priority="18" numLanes="1" speed="27.78" allow="rail_urban" oneway="1"/>
    <type id="railway.tram" priority="17" numLanes="1" speed="13.89" allow="tram" oneway="1"/>

    <edge id=":1075950963_0" function="internal">
        <lane id=":1075950963_0_0" index="0" disallow="tram rail_urban rail rail_electric rail_fast ship" speed="6.32" length="9.83" shape="7281.52,1618.48 7278.96,1616.92 7276.76,1616.58 7274.91,1617.45 7273.42,1619.53"/>
    </edge>
    <edge id=":1075950963_1" function="internal">
        <lane id=":1075950963_1_0" index="0" disallow="tram rail_urban rail rail_electric rail_fast ship" speed="13.89" length="14.46" shape="7281.52,1618.48 7270.10,1609.61"/>
    </edge>
    <edge id=":1075950963_2" function="internal">
        <lane id=":1075950963_2_0" index="0" disallow="tram rail_urban rail rail_electric rail_fast ship" speed="7.86" length="12.24" shape="7281.52,1618.48 7278.71,1615.80 7277.12,1613.17 7276.76,1610.58 7277.62,1608.05"/>
    </edge>
    <edge id=":1075950963_3" function="internal">
        <lane id=":1075950963_3_0" index="0" disallow="tram rail_urban rail rail_electric rail_fast ship" speed="13.89" length="12.19" shape="7280.44,1609.57 7273.42,1619.53"/>
    </edge>
    <edge id=":1075950963_4" function="internal">
        <lane id=":1075950963_4_0" index="0" disallow="tram rail_urban rail rail_electric rail_fast ship" speed="7.11" length="1.85" shape="7280.44,1609.57 7279.20,1610.95"/>
    </edge>
    <edge id=":1075950963_5" function="internal">
        <lane id=":1075950963_5_0" index="0" disallow="tram rail_urban rail rail_electric rail_fast ship" speed="3.65" length="1.28" shape="7280.44,1609.57 7279.31,1610.17"/>
    </edge>
    <edge id=":1075950963_6" function="internal">
        <lane id=":1075950963_6_0" index="0" disallow="tram rail_urban rail rail_electric rail_fast ship" speed="7.11" length="10.16" shape="7279.20,1610.95 7278.59,1611.63 7276.24,1612.32 7273.41,1611.65 7270.10,1609.61"/>
    </edge>
    <edge id=":1075950963_7" function="internal">
        <lane id=":1075950963_7_0" index="0" disallow="tram rail_urban rail rail_electric rail_fast ship" speed="3.65" length="3.39" shape="7279.31,1610.17 7279.17,1610.25 7278.27,1610.22 7277.76,1609.48 7277.62,1608.05"/>
    </edge>
    <edge id=":1075950968_0" function="internal">
        <lane id=":1075950968_0_0" index="0" disallow="tram rail_urban rail rail_electric rail_fast ship" speed="27.78" length="9.86" shape="7326.22,1528.45 7333.04,1535.57"/>
    </edge>
    <edge id=":1075950968_1" function="internal">
        <lane id=":1075950968_1_0" index="0" disallow="tram rail_urban rail rail_electric rail_fast ship" speed="7.35" length="8.72" shape="7326.22,1528.45 7327.96,1530.55 7328.96,1532.55 7329.23,1534.44 7328.76,1536.22"/>
    </edge>
    <edge id=":1075950968_2" function="internal">
        <lane id=":1075950968_2_0" index="0" disallow="tram rail_urban rail rail_electric rail_fast ship" speed="5.82" length="8.95" shape="7325.88,1534.83 7327.15,1533.17 7328.77,1532.75 7330.73,1533.54 7333.04,1535.57"/>
    </edge>
    <edge id=":1075950969_0" function="internal">
        <lane id=":1075950969_0_0" index="0" disallow="tram rail_urban rail rail_electric rail_fast ship" speed="27.78" length="9.43" shape="7340.66,1543.23 7347.33,1549.89"/>
    </edge>
    <edge id=":1075950969_1" function="internal">
        <lane id=":1075950969_1_0" index="0" disallow="tram rail_urban rail rail_electric rail_fast ship" speed="6.35" length="7.92" shape="7340.66,1543.23 7342.44,1545.30 7343.42,1547.13 7343.59,1548.73 7342.95,1550.10"/>
    </edge>
    <edge id=":1075950969_2" function="internal">
        <lane id=":1075950969_2_0" index="0" disallow="tram rail_urban rail rail_electric rail_fast ship" speed="5.99" length="8.03" shape="7340.49,1548.06 7341.76,1547.15 7343.33,1547.15 7345.19,1548.07 7347.33,1549.89"/>
    </edge>
    <edge id=":1077657224_0" function="internal">
        <lane id=":1077657224_0_0" index="0" allow="private pedestrian passenger delivery bicycle" speed="5.56" length="8.36" shape="7226.86,1026.54 7224.45,1027.18 7222.75,1027.65 7221.28,1028.48 7219.57,1030.18"/>
    </edge>
    <edge id=":1077657224_1" function="internal">
        <lane id=":1077657224_1_0" index="0" allow="private pedestrian passenger delivery bicycle" speed="5.56" length="12.28" shape="7226.86,1026.54 7223.72,1026.95 7221.35,1026.00 7219.76,1023.69 7218.94,1020.03"/>
    </edge>
    <edge id=":1077657224_2" function="internal">
        <lane id=":1077657224_2_0" index="0" allow="private pedestrian passenger delivery bicycle" speed="3.73" length="4.98" shape="7226.86,1026.54 7225.63,1025.62 7225.25,1024.75 7225.72,1023.92 7227.04,1023.14"/>
    </edge>
    <edge id=":1077657224_3" function="internal">
        <lane id=":1077657224_3_0" index="0" allow="private pedestrian passenger delivery bicycle" speed="5.56" length="7.36" shape="7222.10,1019.50 7222.60,1021.60 7223.59,1022.91 7225.07,1023.42 7227.04,1023.14"/>
    </edge>
    <edge id=":1077657224_4" function="internal">
        <lane id=":1077657224_4_0" index="0" allow="private pedestrian passenger delivery bicycle" speed="5.56" length="11.27" shape="7222.10,1019.50 7222.20,1022.76 7221.81,1025.63 7220.93,1028.10 7219.57,1030.18"/>
    </edge>
    <edge id=":1077657224_5" function="internal">
        <lane id=":1077657224_5_0" index="0" allow="private pedestrian passenger delivery bicycle" speed="3.65" length="4.68" shape="7222.10,1019.50 7221.51,1020.82 7220.79,1021.34 7219.93,1021.08 7218.94,1020.03"/>
    </edge>
    <edge id=":1077657224_6" function="internal">
        <lane id=":1077657224_6_0" index="0" allow="private pedestrian passenger delivery bicycle" speed="5.56" length="8.49" shape="7217.14,1028.11 7218.12,1026.58 7218.75,1024.72 7219.03,1022.54 7218.94,1020.03"/>
    </edge>
    <edge id=":1077657224_7" function="internal">
        <lane id=":1077657224_7_0" index="0" allow="private pedestrian passenger delivery bicycle" speed="5.56" length="11.32" shape="7217.14,1028.11 7219.38,1025.93 7221.52,1024.75 7223.94,1024.00 7227.04,1023.14"/>
    </edge>
    <edge id=":1077657230_0" function="internal">
        <lane id=":1077657230_0_0" index="0" allow="private pedestrian passenger delivery bicycle" speed="3.65" length="4.67" shape="7262.76,1018.36 7264.20,1018.44 7264.96,1018.92 7265.02,1019.81 7264.40,1021.12"/>
    </edge>
    <edge id=":1077657294_0" function="internal">
        <lane id=":1077657294_0_0" index="0" allow="private pedestrian passenger delivery bicycle" speed="5.56" length="14.59" shape="7212.47,1050.15 7199.58,1056.96"/>
    </edge>
    <edge id=":1077657294_1" function="internal">
        <lane id=":1077657294_1_0" index="0" allow="private pedestrian passenger delivery bicycle" speed="5.56" length="13.71" shape="7212.47,1050.15 7208.90,1051.54 7205.75,1051.52 7203.02,1050.11 7200.71,1047.29"/>
    </edge>
    <edge id=":1077657294_2" function="internal">
        <lane id=":1077657294_2_0" index="0" allow="private pedestrian passenger delivery bicycle" speed="5.56" length="8.67" shape="7203.45,1045.65 7204.90,1047.40 7206.63,1048.26 7208.64,1048.25 7210.93,1047.35"/>
    </edge>
    <edge id=":1077657294_3" function="internal">
        <lane id=":1077657294_3_0" index="0" allow="private pedestrian passenger delivery bicycle" speed="5.56" length="13.86" shape="7203.45,1045.65 7204.82,1049.05 7204.63,1052.07 7202.88,1054.71 7199.58,1056.96"/>
    </edge>
    <edge id=":1077657294_4" function="internal">
        <lane id=":1077657294_4_0" index="0" allow="private pedestrian passenger delivery bicycle" speed="5.56" length="8.42" shape="7198.12,1054.08 7200.20,1052.70 7201.32,1051.10 7201.49,1049.30 7200.71,1047.29"/>
    </edge>
    <edge id=":1077657294_5" function="internal">
        <lane id=":1077657294_5_0" index="0" allow="private pedestrian passenger delivery bicycle" speed="5.56" length="14.47" shape="7198.12,1054.08 7210.93,1047.35"/>
    </edge>
    <edge id=":1077657393_0" function="internal">
        <lane id=":1077657393_0_0" index="0" allow="private pedestrian passenger delivery bicycle" speed="5.56" length="16.71" shape="7124.89,1086.93 7122.35,1083.82 7120.09,1080.11 7118.29,1076.16 7117.14,1072.32"/>
    </edge>
    <edge id=":1077657393_1" function="internal">
        <lane id=":1077657393_1_0" index="0" allow="private pedestrian passenger delivery bicycle" speed="5.56" length="15.33" shape="7124.89,1086.93 7122.34,1083.40 7121.85,1080.19 7123.43,1077.32 7127.08,1074.77"/>
    </edge>
    <edge id=":1077657393_2" function="internal">
        <lane id=":1077657393_2_0" index="0" allow="private pedestrian passenger delivery bicycle" speed="5.56" length="9.09" shape="7128.53,1077.63 7126.40,1079.13 7125.48,1080.83 7125.80,1082.74 7127.33,1084.85"/>
    </edge>
    <edge id=":1077657393_3" function="internal">
        <lane id=":1077657393_3_0" index="0" allow="private pedestrian passenger delivery bicycle" speed="5.56" length="15.42" shape="7128.53,1077.63 7124.33,1079.07 7121.03,1078.66 7118.63,1076.41 7117.14,1072.32"/>
    </edge>
    <edge id=":1077657393_4" function="internal">
        <lane id=":1077657393_4_0" index="0" allow="private pedestrian passenger delivery bicycle" speed="5.56" length="11.16" shape="7120.45,1071.67 7120.08,1074.69 7121.06,1076.22 7123.39,1076.24 7127.08,1074.77"/>
    </edge>
    <edge id=":1077657393_5" function="internal">
        <lane id=":1077657393_5_0" index="0" allow="private pedestrian passenger delivery bicycle" speed="5.56" length="15.39" shape="7120.45,1071.67 7120.38,1074.27 7121.51,1077.33 7123.83,1080.86 7127.33,1084.85"/>
    </edge>
    <edge id=":1077657398_0" function="internal">
        <lane id=":1077657398_0_0" index="0" disallow="tram rail_urban rail rail_electric rail_fast ship" speed="13.89" length="0.10" shape="7299.25,1011.32 7299.25,1011.32"/>
    </edge>
    <edge id=":1077657424_0" function="internal">
        <lane id=":1077657424_0_0" index="0" allow="private pedestrian passenger delivery bicycle" speed="5.56" length="0.69" shape="7265.34,990.47 7265.13,990.48 7264.99,990.51 7264.86,990.56 7264.68,990.65"/>
    </edge>
    <edge id=":1077657424_1" function="internal">
        <lane id=":1077657424_1_0" index="0" allow="private pedestrian passenger delivery bicycle" speed="5.56" length="2.07" shape="7263.19,987.82 7263.73,987.54 7264.13,987.39 7264.54,987.32 7265.15,987.27"/>
    </edge>
    <edge id=":1077657524_0" function="internal">
        <lane id=":1077657524_0_0" index="0" allow="private pedestrian passenger delivery bicycle" speed="5.56" length="10.65" shape="7200.60,1047.11 7198.96,1045.27 7196.84,1044.44 7194.24,1044.61 7191.16,1045.80"/>
    </edge>
    <edge id=":1077657524_1" function="internal">
        <lane id=":1077657524_1_0" index="0" allow="private pedestrian passenger delivery bicycle" speed="5.56" length="15.17" shape="7200.60,1047.11 7198.48,1044.00 7196.02,1041.10 7193.31,1038.41 7190.45,1035.95"/>
    </edge>
    <edge id=":1077657524_2" function="internal">
        <lane id=":1077657524_2_0" index="0" allow="private pedestrian passenger delivery bicycle" speed="5.56" length="13.69" shape="7200.60,1047.11 7199.46,1044.04 7199.80,1041.13 7201.63,1038.40 7204.95,1035.83"/>
    </edge>
    <edge id=":1077657524_3" function="internal">
        <lane id=":1077657524_3_0" index="0" allow="private pedestrian passenger delivery bicycle" speed="5.56" length="16.54" shape="7206.16,1038.84 7202.64,1040.71 7198.73,1042.45 7194.79,1044.12 7191.16,1045.80"/>
    </edge>
    <edge id=":1077657524_4" function="internal">
        <lane id=":1077657524_4_0" index="0" allow="private pedestrian passenger delivery bicycle" speed="5.56" length="17.08" shape="7206.16,1038.84 7202.59,1040.24 7198.78,1040.23 7194.73,1038.80 7190.45,1035.95"/>
    </edge>
    <edge id=":1077657524_5" function="internal">
        <lane id=":1077657524_5_0" index="0" allow="private pedestrian passenger delivery bicycle" speed="5.56" length="13.59" shape="7192.46,1033.46 7195.88,1035.74 7199.11,1036.90 7202.13,1036.93 7204.95,1035.83"/>
    </edge>
    <edge id=":1077657524_6" function="internal">
        <lane id=":1077657524_6_0" index="0" allow="private pedestrian passenger delivery bicycle" speed="5.56" length="16.29" shape="7192.46,1033.46 7195.44,1036.06 7198.40,1039.03 7201.11,1042.23 7203.35,1045.47"/>
    </edge>
    <edge id=":1077657524_7" function="internal">
        <lane id=":1077657524_7_0" index="0" allow="private pedestrian passenger delivery bicycle" speed="5.56" length="16.14" shape="7192.46,1033.46 7195.71,1036.92 7196.57,1040.13 7195.06,1043.09 7191.16,1045.80"/>
    </edge>
    <edge id=":1077657524_8" function="internal">
        <lane id=":1077657524_8_0" index="0" allow="private pedestrian passenger delivery bicycle" speed="5.56" length="9.15" shape="7189.71,1042.94 7191.92,1041.41 7192.78,1039.73 7192.29,1037.91 7190.45,1035.95"/>
    </edge>
    <edge id=":1077657524_9" function="internal">
        <lane id=":1077657524_9_0" index="0" allow="private pedestrian passenger delivery bicycle" speed="5.56" length="16.81" shape="7189.71,1042.94 7204.95,1035.83"/>
    </edge>
    <edge id=":1080611856_0" function="internal">
        <lane id=":1080611856_0_0" index="0" disallow="tram rail_urban rail rail_electric rail_fast ship" speed="4.33" length="1.13" shape="6939.19,2174.60 6939.44,2174.37 6939.58,2174.19 6939.66,2173.97 6939.73,2173.65"/>
    </edge>
    <edge id=":1080716738_0" function="internal">
        <lane id=":1080716738_0_0" index="0" disallow="tram rail_urban rail rail_electric rail_fast ship" speed="22.22" length="10.98" shape="6815.69,2165.02 6806.21,2170.56"/>
    </edge>
    <edge id=":1080716738_1" function="internal">
        <lane id=":1080716738_1_0" index="0" disallow="tram rail_urban rail rail_electric rail_fast ship" speed="6.59" length="8.97" shape="6815.69,2165.02 6813.51,2165.99 6811.49,2166.03 6809.64,2165.13 6807.94,2163.29"/>
    </edge>
    <edge id=":1080716757_0" function="internal">
        <lane id=":1080716757_0_0" index="0" disallow="tram rail_urban rail rail_electric rail_fast ship" speed="13.89" length="11.22" shape="6876.31,2063.13 6883.88,2071.42"/>
    </edge>
    <edge id=":1080716757_1" function="internal">
        <lane id=":1080716757_1_0" index="0" disallow="tram rail_urban rail rail_electric rail_fast ship" speed="6.26" length="4.31" shape="6876.18,2071.54 6878.08,2069.88 6879.79,2069.37"/>
    </edge>
    <edge id=":1080716757_2" function="internal">
        <lane id=":1080716757_2_0" index="0" disallow="tram rail_urban rail rail_electric rail_fast ship" speed="6.26" length="4.74" shape="6879.79,2069.37 6879.99,2069.31 6881.93,2069.82 6883.88,2071.42"/>
    </edge>
    <edge id=":1080835849_0" function="internal">
        <lane id=":1080835849_0_0" index="0" disallow="tram rail_urban rail rail_electric rail_fast ship" speed="13.89" length="0.10" shape="6608.31,1891.05 6608.31,1891.05"/>
    </edge>
    <edge id=":1080835852_0" function="internal">
        <lane id=":1080835852_0_0" index="0" disallow="tram rail_urban rail rail_electric rail_fast ship" speed="27.78" length="6.05" shape="7165.78,1362.74 7166.85,1364.19 7167.61,1365.15 7168.42,1366.07 7169.64,1367.40"/>
    </edge>
    <edge id=":1080835852_1" function="internal">
        <lane id=":1080835852_1_0" index="0" disallow="tram rail_urban rail rail_electric rail_fast ship" speed="4.98" length="5.07" shape="7165.25,1367.35 7166.36,1366.48 7167.46,1366.21 7168.55,1366.51 7169.64,1367.40"/>
    </edge>
    <edge id=":1080835865_0" function="internal">
        <lane id=":1080835865_0_0" index="0" disallow="tram rail_urban rail rail_electric rail_fast ship" speed="6.52" length="8.93" shape="7171.49,1584.19 7169.37,1582.97 7167.36,1582.69 7165.46,1583.38 7163.66,1585.02"/>
    </edge>
    <edge id=":1080835865_1" function="internal">
        <lane id=":1080835865_1_0" index="0" disallow="tram rail_urban rail rail_electric rail_fast ship" speed="13.89" length="11.01" shape="7170.58,1576.45 7163.66,1585.02"/>
    </edge>
    <edge id=":1080835867_0" function="internal">
        <lane id=":1080835867_0_0" index="0" disallow="tram rail_urban rail rail_electric rail_fast ship" speed="13.89" length="10.73" shape="7057.40,1496.92 7053.29,1487.01"/>
    </edge>
    <edge id=":1080835867_1" function="internal">
        <lane id=":1080835867_1_0" index="0" disallow="tram rail_urban rail rail_electric rail_fast ship" speed="6.52" length="4.07" shape="7060.50,1489.88 7058.18,1490.45 7056.52,1490.21"/>
    </edge>
    <edge id=":1080835867_2" function="internal">
        <lane id=":1080835867_2_0" index="0" disallow="tram rail_urban rail rail_electric rail_fast ship" speed="6.52" length="4.70" shape="7056.52,1490.21 7056.20,1490.16 7054.57,1489.02 7053.29,1487.01"/>
    </edge>
    <edge id=":1080835878_0" function="internal">
        <lane id=":1080835878_0_0" index="0" disallow="tram rail_urban rail rail_electric rail_fast ship" speed="13.89" length="3.48" shape="6551.14,1925.36 6550.12,1925.22 6549.41,1925.18 6548.71,1925.23 6547.69,1925.39"/>
    </edge>
    <edge id=":1080835878_1" function="internal">
        <lane id=":1080835878_1_0" index="0" disallow="tram rail_urban rail rail_electric rail_fast ship" speed="13.89" length="4.18" shape="6547.17,1922.23 6548.40,1922.04 6549.23,1921.87 6550.04,1921.61 6551.17,1921.11"/>
    </edge>
    <edge id=":1080835884_0" function="internal">
        <lane id=":1080835884_0_0" index="0" disallow="tram rail_urban rail rail_electric rail_fast ship" speed="13.89" length="11.17" shape="7259.66,1647.62 7254.85,1657.70"/>
    </edge>
    <edge id=":1080835884_1" function="internal">
        <lane id=":1080835884_1_0" index="0" disallow="tram rail_urban rail rail_electric rail_fast ship" speed="6.36" length="9.04" shape="7259.66,1647.62 7258.25,1649.68 7256.53,1650.75 7254.52,1650.81 7252.20,1649.88"/>
    </edge>
    <edge id=":1080839772_0" function="internal">
        <lane id=":1080839772_0_0" index="0" disallow="tram rail_urban rail rail_electric rail_fast ship" speed="27.78" length="6.26" shape="7438.50,1633.98 7443.01,1638.31"/>
    </edge>
    <edge id=":1080839772_1" function="internal">
        <lane id=":1080839772_1_0" index="0" disallow="tram rail_urban rail rail_electric rail_fast ship" speed="6.79" length="5.64" shape="7435.56,1639.05 7437.01,1638.89 7438.36,1639.09 7439.60,1639.65 7440.74,1640.56"/>
    </edge>
    <edge id=":1081903025_0" function="internal">
        <lane id=":1081903025_0_0" index="0" disallow="tram rail_urban rail rail_electric rail_fast ship" speed="3.65" length="4.67" shape="6518.31,2194.67 6517.44,2195.82 6516.62,2196.18 6515.85,2195.73 6515.11,2194.49"/>
    </edge>
    <edge id=":1081908565_0" function="internal">
        <lane id=":1081908565_0_0" index="0" disallow="tram rail_urban rail rail_electric rail_fast ship" speed="13.89" length="16.14" shape="6610.17,2081.70 6609.85,2077.79 6609.21,2073.69 6608.57,2069.60 6608.22,2065.69"/>
    </edge>
    <edge id=":1081908565_1" function="internal">
        <lane id=":1081908565_1_0" index="0" disallow="tram rail_urban rail rail_electric rail_fast ship" speed="10.14" length="12.25" shape="6610.17,2081.70 6610.57,2076.90 6611.95,2073.02 6614.01,2070.43"/>
    </edge>
    <edge id=":1081908565_3" function="internal">
        <lane id=":1081908565_3_0" index="0" disallow="tram rail_urban rail rail_electric rail_fast ship" speed="10.14" length="4.36" shape="6614.01,2070.43 6614.30,2070.06 6617.62,2068.02"/>
    </edge>
    <edge id=":1081908565_2" function="internal">
        <lane id=":1081908565_2_0" index="0" disallow="tram rail_urban rail rail_electric rail_fast ship" speed="5.63" length="8.35" shape="6611.42,2065.61 6611.85,2067.62 6613.03,2068.68 6614.95,2068.82 6617.62,2068.02"/>
    </edge>
    <edge id=":1081937013_0" function="internal">
        <lane id=":1081937013_0_0" index="0" disallow="tram rail_urban rail rail_electric rail_fast ship" speed="3.45" length="1.49" shape="6688.68,1849.42 6688.23,1849.54 6687.83,1849.59 6687.56,1849.70 6687.53,1850.03"/>
    </edge>
    <edge id=":1081937013_1" function="internal">
        <lane id=":1081937013_1_0" index="0" disallow="tram rail_urban rail rail_electric rail_fast ship" speed="7.17" length="3.61" shape="6684.61,1848.69 6685.13,1847.79 6685.66,1847.28 6686.35,1846.94 6687.33,1846.51"/>
    </edge>
    <edge id=":1081937018_0" function="internal">
        <lane id=":1081937018_0_0" index="0" disallow="tram rail_urban rail rail_electric rail_fast ship" speed="3.65" length="4.67" shape="6763.87,2024.62 6762.44,2024.81 6761.61,2024.48 6761.38,2023.62 6761.75,2022.22"/>
    </edge>
    <edge id=":1081937020_0" function="internal">
        <lane id=":1081937020_0_0" index="0" disallow="tram rail_urban rail rail_electric rail_fast ship" speed="3.65" length="4.67" shape="6730.81,2072.04 6729.90,2073.16 6729.07,2073.48 6728.31,2073.01 6727.63,2071.74"/>
    </edge>
    <edge id=":1081937025_0" function="internal">
        <lane id=":1081937025_0_0" index="0" disallow="tram rail_urban rail rail_electric rail_fast ship" speed="22.22" length="6.79" shape="6965.94,2069.03 6960.23,2072.71"/>
    </edge>
    <edge id=":1081937025_1" function="internal">
        <lane id=":1081937025_1_0" index="0" disallow="tram rail_urban rail rail_electric rail_fast ship" speed="5.95" length="9.09" shape="6960.67,2065.41 6962.43,2067.35 6962.94,2069.21 6962.21,2071.00 6960.23,2072.71"/>
    </edge>
    <edge id=":1081937026_0" function="internal">
        <lane id=":1081937026_0_0" index="0" disallow="tram rail_urban rail rail_electric rail_fast ship" speed="13.89" length="9.37" shape="6748.06,1908.18 6757.36,1909.36"/>
    </edge>
    <edge id=":1081937026_1" function="internal">
        <lane id=":1081937026_1_0" index="0" disallow="tram rail_urban rail rail_electric rail_fast ship" speed="6.10" length="7.74" shape="6748.06,1908.18 6750.76,1908.74 6752.64,1909.57 6753.69,1910.68 6753.91,1912.06"/>
    </edge>
    <edge id=":1081937026_2" function="internal">
        <lane id=":1081937026_2_0" index="0" disallow="tram rail_urban rail rail_electric rail_fast ship" speed="6.09" length="0.95" shape="6750.74,1911.67 6751.11,1910.81"/>
    </edge>
    <edge id=":1081937026_3" function="internal">
        <lane id=":1081937026_3_0" index="0" disallow="tram rail_urban rail rail_electric rail_fast ship" speed="6.09" length="6.79" shape="6751.11,1910.81 6751.29,1910.39 6752.58,1909.57 6754.60,1909.23 6757.36,1909.36"/>
    </edge>
    <edge id=":1081937032_0" function="internal">
        <lane id=":1081937032_0_0" index="0" disallow="tram rail_urban rail rail_electric rail_fast ship" speed="3.65" length="4.67" shape="6720.55,1831.14 6721.97,1831.36 6722.67,1831.92 6722.65,1832.81 6721.89,1834.04"/>
    </edge>
    <edge id=":1081937034_0" function="internal">
        <lane id=":1081937034_0_0" index="0" disallow="tram rail_urban rail rail_electric rail_fast ship" speed="11.54" length="8.02" shape="6951.02,1938.47 6953.34,1939.02 6954.99,1939.28 6956.61,1939.11 6958.82,1938.35"/>
    </edge>
    <edge id=":1081937034_1" function="internal">
        <lane id=":1081937034_1_0" index="0" disallow="tram rail_urban rail rail_electric rail_fast ship" speed="8.60" length="7.81" shape="6951.02,1938.47 6953.21,1939.14 6955.00,1940.05 6956.38,1941.21 6957.35,1942.62"/>
    </edge>
    <edge id=":1081937034_2" function="internal">
        <lane id=":1081937034_2_0" index="0" disallow="tram rail_urban rail rail_electric rail_fast ship" speed="22.22" length="8.15" shape="6951.92,1942.55 6953.76,1940.99 6955.11,1940.02 6956.59,1939.27 6958.82,1938.35"/>
    </edge>
    <edge id=":1081937034_3" function="internal">
        <lane id=":1081937034_3_0" index="0" disallow="tram rail_urban rail rail_electric rail_fast ship" speed="5.25" length="6.56" shape="6951.92,1942.55 6953.67,1941.34 6955.16,1940.94 6956.39,1941.37 6957.35,1942.62"/>
    </edge>
    <edge id=":1081937036_0" function="internal">
        <lane id=":1081937036_0_0" index="0" disallow="tram rail_urban rail rail_electric rail_fast ship" speed="13.89" length="6.12" shape="6986.94,1993.82 6985.48,1994.91 6984.50,1995.68 6983.55,1996.48 6982.20,1997.70"/>
    </edge>
    <edge id=":1081937036_1" function="internal">