<?xml version="1.0" encoding="UTF-8"?>

<!-- generated on 2022-10-20 16:28:15 by Eclipse SUMO netedit Version 1.14.0
-->

<routes xmlns:xsi="http://www.w3.org/2001/XMLSchema-instance" xsi:noNamespaceSchemaLocation="http://sumo.dlr.de/xsd/routes_file.xsd">
    <!-- Vehicles, persons and containers (sorted by depart) -->
    <personFlow id="fpedp_0" begin="0.00" end="3600.00" personsPerHour="1800.00">
        <personTrip from="-744932252#3" to="-744932252#2"/>
    </personFlow>
    <personFlow id="fpedp_1" begin="0.00" end="3600.00" personsPerHour="1800.00">
        <personTrip from="-744932252#1" to="-744932252#0"/>
    </personFlow>

    <personFlow id="ff_0" begin="0.00" end="3600.00" personsPerHour="1800.00">
        <personTrip from="671188879#1" to="671188879#1"/>
    </personFlow>
    <personFlow id="ff_1" begin="0.00" end="3600.00" personsPerHour="1800.00">
        <personTrip from="672928656" to="672928656"/>
    </personFlow>
    <personFlow id="ff_10" begin="0.00" end="3600.00" personsPerHour="1800.00">
        <personTrip from="-225207178#4" to="-225207178#4"/>
    </personFlow>
    <personFlow id="ff_11" begin="0.00" end="3600.00" personsPerHour="1800.00">
        <personTrip from="50695151#0" to="50695151#1"/>
    </personFlow>
    <personFlow id="ff_12" begin="0.00" end="3600.00" personsPerHour="1800.00">
        <personTrip from="50694871#1-AddedOnRampEdge" to="50694871#1"/>
    </personFlow>
    <personFlow id="ff_13" begin="0.00" end="3600.00" personsPerHour="1800.00">
        <personTrip from="50694871#2" to="50694871#2"/>
    </personFlow>
    <personFlow id="ff_2" begin="0.00" end="3600.00" personsPerHour="1800.00">
        <personTrip from="-401420254#2" to="-401420254#2"/>
    </personFlow>
    <personFlow id="ff_3" begin="0.00" end="3600.00" personsPerHour="1800.00">
        <personTrip from="-401420254#0" to="-401420254#0"/>
    </personFlow>
    <personFlow id="ff_6" begin="0.00" end="3600.00" personsPerHour="1800.00">
        <personTrip from="50723708" to="671121562#0"/>
    </personFlow>
    <personFlow id="ff_7" begin="0.00" end="3600.00" personsPerHour="1800.00">
        <personTrip from="671121562#1" to="671121562#1"/>
    </personFlow>
    <personFlow id="ff_8" begin="0.00" end="3600.00" personsPerHour="1800.00">
        <personTrip from="185483089#0" to="185483089#1"/>
    </personFlow>
    <personFlow id="ff_9" begin="0.00" end="3600.00" personsPerHour="1800.00">
        <personTrip from="185483089#2" to="185483089#2"/>
    </personFlow>

    <personFlow id="f_0" begin="0.00" end="3600.00" personsPerHour="1800.00">
        <personTrip from="-160821299#0" to="160821299#0"/>
    </personFlow>
    <personFlow id="f_1" begin="0.00" end="3600.00" personsPerHour="1800.00">
        <personTrip from="-160821518#1" to="-160821518#0"/>
    </personFlow>
    <personFlow id="f_10" begin="0.00" end="3600.00" personsPerHour="1800.00">
        <personTrip from="687007143" to="687007143"/>
    </personFlow>
    <personFlow id="f_11" begin="0.00" end="3600.00" personsPerHour="1800.00">
        <personTrip from="671748997#2" to="671748997#2"/>
    </personFlow>
    <personFlow id="f_12" begin="0.00" end="3600.00" personsPerHour="1800.00">
        <personTrip from="687007150#3" to="687007150#3"/>
    </personFlow>
    <personFlow id="f_13" begin="0.00" end="3600.00" personsPerHour="1800.00">
        <personTrip from="687413071" to="687413071"/>
    </personFlow>
    <personFlow id="f_14" begin="0.00" end="3600.00" personsPerHour="1800.00">
        <personTrip from="691048348#0" to="691048348#1"/>
    </personFlow>
    <personFlow id="f_15" begin="0.00" end="3600.00" personsPerHour="1800.00">
        <personTrip from="672181120#0" to="672181120#1"/>
    </personFlow>
    <personFlow id="f_16" begin="0.00" end="3600.00" personsPerHour="1800.00">
        <personTrip from="672181137" to="672181137"/>
    </personFlow>
    <personFlow id="f_17" begin="0.00" end="3600.00" personsPerHour="1800.00">
        <personTrip from="51002616#35" to="51002616#35"/>
    </personFlow>
    <personFlow id="f_18" begin="0.00" end="3600.00" personsPerHour="1800.00">
        <personTrip from="51002616#34" to="51002616#34"/>
    </personFlow>
    <personFlow id="f_19" begin="0.00" end="3600.00" personsPerHour="1800.00">
        <personTrip from="51008489#0" to="51008489#0"/>
    </personFlow>
    <personFlow id="f_2" begin="0.00" end="3600.00" personsPerHour="1800.00">
        <personTrip from="993226618#4" to="993226618#1"/>
    </personFlow>
    <personFlow id="f_20" begin="0.00" end="3600.00" personsPerHour="1800.00">
        <personTrip from="51039567#6" to="51039567#6"/>
    </personFlow>
    <personFlow id="f_21" begin="0.00" end="3600.00" personsPerHour="1800.00">
        <personTrip from="51039567#5" to="51039567#5"/>
    </personFlow>
    <personFlow id="f_22" begin="0.00" end="3600.00" personsPerHour="1800.00">
        <personTrip from="51039567#4" to="51039567#4"/>
    </personFlow>
    <personFlow id="f_23" begin="0.00" end="3600.00" personsPerHour="1800.00">
        <personTrip from="51008501#0" to="51008501#0"/>
    </personFlow>
    <personFlow id="f_24" begin="0.00" end="3600.00" personsPerHour="1800.00">
        <personTrip from="51002616#30" to="51002616#30"/>
    </personFlow>
    <personFlow id="f_25" begin="0.00" end="3600.00" personsPerHour="1800.00">
        <personTrip from="51008499#0" to="51008499#0"/>
    </personFlow>
    <personFlow id="f_26" begin="0.00" end="3600.00" personsPerHour="1800.00">
        <personTrip from="51039567#2" to="51039567#2"/>
    </personFlow>
    <personFlow id="f_27" begin="0.00" end="3600.00" personsPerHour="1800.00">
        <personTrip from="51039567#1" to="51039567#1"/>
    </personFlow>
    <personFlow id="f_28" begin="0.00" end="3600.00" personsPerHour="1800.00">
        <personTrip from="51039567#0" to="51039567#0"/>
    </personFlow>
    <personFlow id="f_29" begin="0.00" end="3600.00" personsPerHour="1800.00">
        <personTrip from="672181143" to="672181143"/>
    </personFlow>
    <personFlow id="f_30" begin="0.00" end="3600.00" personsPerHour="1800.00">
        <personTrip from="672181141#1" to="672181141#1"/>
    </personFlow>
    <personFlow id="f_31" begin="0.00" end="3600.00" personsPerHour="1800.00">
        <personTrip from="672181142" to="672181142"/>
    </personFlow>
    <personFlow id="f_32" begin="0.00" end="3600.00" personsPerHour="1800.00">
        <personTrip from="51009738#8" to="51009738#8"/>
    </personFlow>
    <personFlow id="f_33" begin="0.00" end="3600.00" personsPerHour="1800.00">
        <personTrip from="51008509#0" to="51008509#0"/>
    </personFlow>
    <personFlow id="f_34" begin="0.00" end="3600.00" personsPerHour="1800.00">
        <personTrip from="51002616#24" to="51002616#24"/>
    </personFlow>
    <personFlow id="f_35" begin="0.00" end="3600.00" personsPerHour="1800.00">
        <personTrip from="51002616#23" to="51002616#23"/>
    </personFlow>
    <personFlow id="f_36" begin="0.00" end="3600.00" personsPerHour="1800.00">
        <personTrip from="51002616#22" to="51002616#22"/>
    </personFlow>
    <personFlow id="f_37" begin="0.00" end="3600.00" personsPerHour="1800.00">
        <personTrip from="51002616#21" to="51002616#21"/>
    </personFlow>
    <personFlow id="f_38" begin="0.00" end="3600.00" personsPerHour="1800.00">
        <personTrip from="51002616#20" to="51002616#20"/>
    </personFlow>
    <personFlow id="f_39" begin="0.00" end="3600.00" personsPerHour="1800.00">
        <personTrip from="51002616#19" to="51002616#19"/>
    </personFlow>
    <personFlow id="f_4" begin="0.00" end="3600.00" personsPerHour="1800.00">
        <personTrip from="357219308#3" to="357219308#2"/>
    </personFlow>
    <personFlow id="f_40" begin="0.00" end="3600.00" personsPerHour="1800.00">
        <personTrip from="51002616#18" to="51002616#18"/>
    </personFlow>
    <personFlow id="f_41" begin="0.00" end="3600.00" personsPerHour="1800.00">
        <personTrip from="51002616#17" to="51002616#17"/>
    </personFlow>
    <personFlow id="f_42" begin="0.00" end="3600.00" personsPerHour="1800.00">
        <personTrip from="51007424#0" to="51007424#0"/>
    </personFlow>
    <personFlow id="f_43" begin="0.00" end="3600.00" personsPerHour="1800.00">
        <personTrip from="51007424#1" to="51007424#1"/>
    </personFlow>
    <personFlow id="f_44" begin="0.00" end="3600.00" personsPerHour="1800.00">
        <personTrip from="51002615#16" to="51002615#16"/>
    </personFlow>
    <personFlow id="f_45" begin="0.00" end="3600.00" personsPerHour="1800.00">
        <personTrip from="51002615#15" to="51002615#15"/>
    </personFlow>
    <personFlow id="f_46" begin="0.00" end="3600.00" personsPerHour="1800.00">
        <personTrip from="51002615#14" to="51002615#14"/>
    </personFlow>
    <personFlow id="f_47" begin="0.00" end="3600.00" personsPerHour="1800.00">
        <personTrip from="51002615#13" to="51002615#13"/>
    </personFlow>
    <personFlow id="f_48" begin="0.00" end="3600.00" personsPerHour="1800.00">
        <personTrip from="51007430#1" to="51007430#1"/>
    </personFlow>
    <personFlow id="f_49" begin="0.00" end="3600.00" personsPerHour="1800.00">
        <personTrip from="51039569#3" to="51039569#3"/>
    </personFlow>
    <personFlow id="f_5" begin="0.00" end="3600.00" personsPerHour="1800.00">
        <personTrip from="671749014#1" to="671749014#1"/>
    </personFlow>
    <personFlow id="f_50" begin="0.00" end="3600.00" personsPerHour="1800.00">
        <personTrip from="51039569#2" to="51039569#2"/>
    </personFlow>
    <personFlow id="f_51" begin="0.00" end="3600.00" personsPerHour="1800.00">
        <personTrip from="51039569#1" to="51039569#1"/>
    </personFlow>
    <personFlow id="f_52" begin="0.00" end="3600.00" personsPerHour="1800.00">
        <personTrip from="51039569#0" to="51039569#0"/>
    </personFlow>
    <personFlow id="f_53" begin="0.00" end="3600.00" personsPerHour="1800.00">
        <personTrip from="671121558#2" to="671121558#2"/>
    </personFlow>
    <personFlow id="f_54" begin="0.00" end="3600.00" personsPerHour="1800.00">
        <personTrip from="51001253#9" to="51001253#9"/>
    </personFlow>
    <personFlow id="f_55" begin="0.00" end="3600.00" personsPerHour="1800.00">
        <personTrip from="51001253#8" to="51001253#8"/>
    </personFlow>
    <personFlow id="f_56" begin="0.00" end="3600.00" personsPerHour="1800.00">
        <personTrip from="51001253#7" to="51001253#7"/>
    </personFlow>
    <personFlow id="f_57" begin="0.00" end="3600.00" personsPerHour="1800.00">
        <personTrip from="51007256#0" to="51007256#0"/>
    </personFlow>
    <personFlow id="f_58" begin="0.00" end="3600.00" personsPerHour="1800.00">
        <personTrip from="51002616#6" to="51002616#6"/>
    </personFlow>
    <personFlow id="f_59" begin="0.00" end="3600.00" personsPerHour="1800.00">
        <personTrip from="51002616#5" to="51002616#5"/>
    </personFlow>
    <personFlow id="f_6" begin="0.00" end="3600.00" personsPerHour="1800.00">
        <personTrip from="671749014#0" to="671749014#0"/>
    </personFlow>
    <personFlow id="f_60" begin="0.00" end="3600.00" personsPerHour="1800.00">
        <personTrip from="51002616#4" to="51002616#4"/>
    </personFlow>
    <personFlow id="f_61" begin="0.00" end="3600.00" personsPerHour="1800.00">
        <personTrip from="51002616#3" to="51002616#3"/>
    </personFlow>
    <personFlow id="f_62" begin="0.00" end="3600.00" personsPerHour="1800.00">
        <personTrip from="51002616#2" to="51002616#2"/>
    </personFlow>
    <personFlow id="f_63" begin="0.00" end="3600.00" personsPerHour="1800.00">
        <personTrip from="51002616#1" to="51002616#1"/>
    </personFlow>
    <personFlow id="f_64" begin="0.00" end="3600.00" personsPerHour="1800.00">
        <personTrip from="51002616#0" to="51002616#0"/>
    </personFlow>
    <personFlow id="f_65" begin="0.00" end="3600.00" personsPerHour="1800.00">
        <personTrip from="398174738#0" to="398174738#0"/>
    </personFlow>
    <personFlow id="f_66" begin="0.00" end="3600.00" personsPerHour="1800.00">
        <personTrip from="692579873" to="692579873"/>
    </personFlow>
    <personFlow id="f_67" begin="0.00" end="3600.00" personsPerHour="1800.00">
        <personTrip from="692579870#0" to="692579870#1"/>
    </personFlow>
    <personFlow id="f_68" begin="0.00" end="3600.00" personsPerHour="1800.00">
        <personTrip from="670004809#0" to="670004809#1"/>
    </personFlow>
    <personFlow id="f_69" begin="0.00" end="3600.00" personsPerHour="1800.00">
        <personTrip from="671983011" to="671983011"/>
    </personFlow>
    <personFlow id="f_7" begin="0.00" end="3600.00" personsPerHour="1800.00">
        <personTrip from="671748998#4" to="671748998#4"/>
    </personFlow>
    <personFlow id="f_70" begin="0.00" end="3600.00" personsPerHour="1800.00">
        <personTrip from="543004379" to="543004379"/>
    </personFlow>
    <personFlow id="f_71" begin="0.00" end="3600.00" personsPerHour="1800.00">
        <personTrip from="672093588" to="678137721#0"/>
    </personFlow>
    <personFlow id="f_72" begin="0.00" end="3600.00" personsPerHour="1800.00">
        <personTrip from="672093584" to="672093584"/>
    </personFlow>
    <personFlow id="f_73" begin="0.00" end="3600.00" personsPerHour="1800.00">
        <personTrip from="672093584.218" to="672093584.218"/>
    </personFlow>
    <personFlow id="f_74" begin="0.00" end="3600.00" personsPerHour="1800.00">
        <personTrip from="678137723" to="678137723"/>
    </personFlow>
    <personFlow id="f_75" begin="0.00" end="3600.00" personsPerHour="1800.00">
        <personTrip from="672085303#1" to="672085303#1"/>
    </personFlow>
    <personFlow id="f_76" begin="0.00" end="3600.00" personsPerHour="1800.00">
        <personTrip from="672085303#3" to="672085303#3"/>
    </personFlow>
    <personFlow id="f_77" begin="0.00" end="3600.00" personsPerHour="1800.00">
        <personTrip from="672085301#1" to="672085301#1"/>
    </personFlow>
    <personFlow id="f_78" begin="0.00" end="3600.00" personsPerHour="1800.00">
        <personTrip from="302546386#0" to="302546386#1"/>
    </personFlow>
    <personFlow id="f_8" begin="0.00" end="3600.00" personsPerHour="1800.00">
        <personTrip from="671749012#1" to="671749012#3"/>
    </personFlow>
    <personFlow id="f_9" begin="0.00" end="3600.00" personsPerHour="1800.00">
        <personTrip from="687007141" to="687007141"/>
    </personFlow>
</routes>
