<?xml version="1.0" encoding="UTF-8"?>

<!-- generated on 2022-10-17 15:52:16 by Eclipse SUMO netedit Version 1.14.0
-->

<routes xmlns:xsi="http://www.w3.org/2001/XMLSchema-instance" xsi:noNamespaceSchemaLocation="http://sumo.dlr.de/xsd/routes_file.xsd">
    <!-- VTypes -->
    <vType id="rail_sa" vClass="rail" emissionClass="HBEFA3/PC_G_EU4" width="1.80" height="1.50"/>

    <!-- Vehicles, persons and containers (sorted by depart) -->
    <flow id="frail_0" type="rail_sa" begin="0.00" end="3600.00" vehsPerHour="1800.00">
        <route edges="-124781226#0 -673974343#1 -673974343#0 -448980709#0 -93337139"/>
    </flow>
    <flow id="frail_1" type="rail_sa" begin="0.00" end="3600.00" vehsPerHour="1800.00">
        <route edges="50943608#0 50943608#1 92809875 225207185#1 92809862#0 92809862#1 -92809862#1"/>
    </flow>
    <flow id="frail_2" type="rail_sa" begin="0.00" end="3600.00" vehsPerHour="1800.00">
        <route edges="92779004#0 92779007"/>
    </flow>
</routes>
