<?xml version="1.0" encoding="UTF-8"?>

<!-- generated on 2022-10-16 20:17:04 by Eclipse SUMO netedit Version 1.14.0
-->

<routes xmlns:xsi="http://www.w3.org/2001/XMLSchema-instance" xsi:noNamespaceSchemaLocation="http://sumo.dlr.de/xsd/routes_file.xsd">
    <!-- Vehicles, persons and containers (sorted by depart) -->
    <flow id="f_0" type="DEFAULT_BIKETYPE" begin="0.00" end="70000.00" vehsPerHour="2000.00">
        <route edges="-670004810 670004810"/>
    </flow>
    <flow id="f_1" type="DEFAULT_TAXITYPE" begin="0.00" end="70000.00" vehsPerHour="150.00">
        <route edges="50695151#0 50695151#1 50695151#2 50695151#3 50695151#4 50695151#5 50701873#0 50701873#1 766350959#0 766350959#1 766350959#2 766511482#1 668814536#0 668814536#1 668814536#2 668814536#3 668814536#4 668814536#5 668814536#6 668814536#7 668814536#8 668814536#9 668814536#10 668814536#11 668814536#12 50718212#0 50718212#1 50718212#2 50718212#3 23653449#0 23653449#1 23653449#2 23653449#3 23653449#4 23653449#5 23653449#6 23653449#7 23653449#8 23653449#9 23653449#10 23653449#11 23653449#12 23653449#13 23653449#14 23653449#15 23653449#16 23653449#17 23653449#18 398164151#1 398164151#2 671471170#0 671471170#1 671471170#2 50718208#0 50718208#1 50718208#2 671188874 50723709#0 50723709#1 671188879#0 671188879#1"/>
    </flow>
    <flow id="f_2" begin="0.00" color="blue" end="70000.00" vehsPerHour="500.00">
        <route edges="671037669#0 671037669#1 671037669#2 671037669#3 671037669#4 671037669#5 671037669#6 671037669#7 671037669#8 671037669#9 93244892 658959970 350601614#3 350601614#4 672485064#1 658959969 -93339462#1 -93339462#0 -659973015 658953345#4 658953349 658953351 674561340#0 674561340#1 674561340#2 659973017 326534783#0 326534783#1 326534783#2 326534783#3 658953348 658953347#1 93662165#0 93662165#1 93662165#2 93662165#3 93662165#4 93662165#5 93662165#6 93662165#7 93662165#8 93662165#9 676577844#0 676577844#1 676577844#4 93332517 486603221 486603222 691994650#0 691994650#1 486617540#0 486617540#2 486617540#3 486617540#4 486617539#0 486617539#1 486617539#2 486617539#3 274368725#0 274368725#1 274368725#2 274368725#3 486607478 486607481 671471170#0 671471170#1 671471170#2 671471170#3 274913869"/>
    </flow>
    <flow id="f_3" begin="0.00" color="blue" end="70000.00" vehsPerHour="500.00">
        <route edges="50723713#0 50723713#1 50723708 671121562#0 671121562#1 185483089#0 185483089#1 185483089#2 -51016578#3 -51016578#2 -51016578#1 -51016578#0"/>
    </flow>
    <flow id="f_4" begin="0.00" color="blue" end="70000.00" vehsPerHour="600.00">
        <route edges="50731851#1 225207216 225207178#1 225207178#2 225207178#3 225207178#4"/>
    </flow>
    <flow id="f_5" begin="0.00" color="blue" end="70000.00" vehsPerHour="600.00">
        <route edges="765806992#0 765806992#1 765806992#2 765806992#3 765806992#4 50694349#0 50694349#1 50694349#2 50694349#3 50694349#4 50694349#5 50694349#6 50694853 668814462#0 668814462#1 225207195#1 50706175#0 50706175#1 50706194#0 50706194#1 50706083#1 50706084#0 50706084#1 668730065#0 668730065#1 668730064 668814467"/>
    </flow>
    <flow id="f_6" begin="0.00" color="blue" end="70000.00" vehsPerHour="300.00">
        <route edges="50807809#00 50807809#1 50733591#1 50733591#2 28236979#0 28236979#1 28236979#2 677142776 163563224 163563225 50733593 163563223#0 163563223#1 50702263#0 93385424 669664320 93339463#0 93339463#1 93339463#3 93339463#4 93339463#6 93339463#7 658953345#0 658953345#1 658953345#2 658953345#4 658953349 658953351 674561339 658953352#1 103494305#0 103494305#3 103494305#4 103494305#5 669400442 669400441#0 669400441#1 93660151#0 93660151#1 93660151#2 93660151#3 93338846#0 -93338845#2 -93338845#1 -93338845#0 676577846#4 676577846#5 676577846#6 411796617 676624357"/>
    </flow>
    <flow id="f_7" begin="0.00" color="blue" end="70000.00" vehsPerHour="600.00">
        <route edges="185483089#4 185483089#5 185483089#6 185483089#7 185483089#8 185483089#9 185483089#10 185483089#11 185483089#12 185483089#13 185483089#14 185483089#15 185483089#16 185483089#17 185483089#18 185483089#19 185483089#20 185483089#21 185483089#22 185483089#23 185483089#24 50731850#0 50731850#1 766511481 50701874#0 50701874#2 50701874#3 766511482#1 668814536#0 668814536#1 668814536#2 668814536#3 668814536#4 668814536#5 668814536#6 668814536#7 50702261#0 50702261#1 50702261#2 50702261#3 93239288#0 93239288#1 93340387 672928629#0 93340462#0 93340462#1 175913052#2 175913052#3 50706327#0 50706327#1 50706327#2 50706327#3 50706327#4 50706327#5 50706327#6 50706327#7 671103418#0 50793375#0 50793375#1 50793375#2 50793378#5 653527372#0 653527372#1 653527372#2 653527372#3 50808189#2 50808190#0 50809700"/>
    </flow>
</routes>
