<?xml version="1.0" encoding="UTF-8"?>

<!-- generated on 03/20/21 19:50:55 by Eclipse SUMO netedit Version 1.8.0
<configuration xmlns:xsi="http://www.w3.org/2001/XMLSchema-instance" xsi:noNamespaceSchemaLocation="http://sumo.dlr.de/xsd/netconvertConfiguration.xsd">

    <input>
        <sumo-net-file value="G:\Il%20mio%20Drive\Tesi%20Magistrale\crowdsourcing_routing\crowdsourcing_unisa\sumo_files\osm.net.xml"/>
    </input>

    <output>
        <output-file value="G:\Il%20mio%20Drive\Tesi%20Magistrale\crowdsourcing_routing\crowdsourcing_unisa\sumo_files\osm.net.xml"/>
        <output.street-names value="true"/>
    </output>

    <processing>
        <geometry.min-radius.fix.railways value="false"/>
        <geometry.max-grade.fix value="false"/>
        <offset.disable-normalization value="true"/>
        <lefthand value="false"/>
    </processing>

    <junctions>
        <no-turnarounds value="true"/>
        <junctions.corner-detail value="5"/>
        <junctions.limit-turn-speed value="5.5"/>
        <rectangular-lane-cut value="false"/>
    </junctions>

    <pedestrian>
        <walkingareas value="false"/>
    </pedestrian>

    <report>
        <aggregate-warnings value="5"/>
    </report>

</configuration>
-->

<net xmlns:xsi="http://www.w3.org/2001/XMLSchema-instance" version="1.6" junctionCornerDetail="5" limitTurnSpeed="5.50"
     xsi:noNamespaceSchemaLocation="http://sumo.dlr.de/xsd/net_file.xsd">

    <location netOffset="-481150.63,-4511614.17" convBoundary="606.67,1242.56,1696.53,2464.14"
              origBoundary="14.776636,40.755338,14.827689,40.783016"
              projParameter="+proj=utm +zone=33 +ellps=WGS84 +datum=WGS84 +units=m +no_defs"/>

    <type id="highway.bridleway" priority="1" numLanes="1" speed="2.78" allow="pedestrian" oneway="1" width="2.00"/>
    <type id="highway.bus_guideway" priority="1" numLanes="1" speed="27.78" allow="bus" oneway="1"/>
    <type id="highway.cycleway" priority="1" numLanes="1" speed="8.33" allow="bicycle" oneway="1" width="1.00"/>
    <type id="highway.footway" priority="1" numLanes="1" speed="2.78" allow="pedestrian" oneway="1" width="2.00"/>
    <type id="highway.ford" priority="1" numLanes="1" speed="2.78" allow="army" oneway="1"/>
    <type id="highway.living_street" priority="2" numLanes="1" speed="2.78"
          disallow="tram rail_urban rail rail_electric rail_fast ship" oneway="1"/>
    <type id="highway.motorway" priority="14" numLanes="2" speed="39.44"
          allow="private emergency authority army vip passenger hov taxi bus coach delivery truck trailer motorcycle evehicle custom1 custom2"
          oneway="1"/>
    <type id="highway.motorway_link" priority="9" numLanes="1" speed="22.22"
          allow="private emergency authority army vip passenger hov taxi bus coach delivery truck trailer motorcycle evehicle custom1 custom2"
          oneway="1"/>
    <type id="highway.path" priority="1" numLanes="1" speed="2.78" allow="pedestrian bicycle" oneway="1" width="2.00"/>
    <type id="highway.pedestrian" priority="1" numLanes="1" speed="2.78" allow="pedestrian" oneway="1" width="2.00"/>
    <type id="highway.primary" priority="12" numLanes="2" speed="27.78"
          disallow="tram rail_urban rail rail_electric rail_fast ship" oneway="1"/>
    <type id="highway.primary_link" priority="7" numLanes="1" speed="22.22"
          disallow="tram rail_urban rail rail_electric rail_fast ship" oneway="1"/>
    <type id="highway.raceway" priority="15" numLanes="2" speed="83.33" allow="vip" oneway="1"/>
    <type id="highway.residential" priority="3" numLanes="1" speed="13.89"
          disallow="tram rail_urban rail rail_electric rail_fast ship" oneway="1"/>
    <type id="highway.secondary" priority="11" numLanes="1" speed="27.78"
          disallow="tram rail_urban rail rail_electric rail_fast ship" oneway="1"/>
    <type id="highway.secondary_link" priority="6" numLanes="1" speed="22.22"
          disallow="tram rail_urban rail rail_electric rail_fast ship" oneway="1"/>
    <type id="highway.service" priority="1" numLanes="1" speed="5.56" allow="pedestrian delivery bicycle" oneway="1"/>
    <type id="highway.stairs" priority="1" numLanes="1" speed="1.39" allow="pedestrian" oneway="1" width="2.00"/>
    <type id="highway.step" priority="1" numLanes="1" speed="1.39" allow="pedestrian" oneway="1" width="2.00"/>
    <type id="highway.steps" priority="1" numLanes="1" speed="1.39" allow="pedestrian" oneway="1" width="2.00"/>
    <type id="highway.tertiary" priority="10" numLanes="1" speed="22.22"
          disallow="tram rail_urban rail rail_electric rail_fast ship" oneway="1"/>
    <type id="highway.tertiary_link" priority="5" numLanes="1" speed="22.22"
          disallow="tram rail_urban rail rail_electric rail_fast ship" oneway="1"/>
    <type id="highway.track" priority="1" numLanes="1" speed="5.56" allow="pedestrian motorcycle moped bicycle"
          oneway="1"/>
    <type id="highway.trunk" priority="13" numLanes="2" speed="27.78"
          disallow="pedestrian bicycle tram rail_urban rail rail_electric rail_fast ship" oneway="1"/>
    <type id="highway.trunk_link" priority="8" numLanes="1" speed="22.22"
          disallow="pedestrian bicycle tram rail_urban rail rail_electric rail_fast ship" oneway="1"/>
    <type id="highway.unclassified" priority="4" numLanes="1" speed="13.89"
          disallow="tram rail_urban rail rail_electric rail_fast ship" oneway="1"/>
    <type id="highway.unsurfaced" priority="1" numLanes="1" speed="8.33"
          disallow="tram rail_urban rail rail_electric rail_fast ship" oneway="1"/>
    <type id="railway.highspeed" priority="21" numLanes="1" speed="69.44" allow="rail_fast" oneway="1"/>
    <type id="railway.light_rail" priority="19" numLanes="1" speed="27.78" allow="rail_urban" oneway="1"/>
    <type id="railway.preserved" priority="16" numLanes="1" speed="27.78" allow="rail" oneway="1"/>
    <type id="railway.rail" priority="20" numLanes="1" speed="44.44" allow="rail" oneway="1"/>
    <type id="railway.subway" priority="18" numLanes="1" speed="27.78" allow="rail_urban" oneway="1"/>
    <type id="railway.tram" priority="17" numLanes="1" speed="13.89" allow="tram" oneway="1"/>

    <edge id=":1265308081_0" function="internal">
        <lane id=":1265308081_0_0" index="0" disallow="tram rail_urban rail rail_electric rail_fast ship" speed="16.87"
              length="5.87" shape="1478.90,2064.13 1477.28,2064.16 1476.23,2064.76 1475.19,2065.56 1473.58,2066.19"/>
    </edge>
    <edge id=":1265308081_1" function="internal">
        <lane id=":1265308081_1_0" index="0" disallow="tram rail_urban rail rail_electric rail_fast ship" speed="9.09"
              length="5.27" shape="1478.90,2064.13 1477.35,2063.90 1476.25,2063.69 1475.30,2063.22 1474.17,2062.20"/>
    </edge>
    <edge id=":1370556749_0" function="internal">
        <lane id=":1370556749_0_0" index="0" disallow="tram rail_urban rail rail_electric rail_fast ship" speed="8.33"
              length="14.68" shape="1513.00,1570.20 1506.77,1556.91"/>
    </edge>
    <edge id=":1370556749_1" function="internal">
        <lane id=":1370556749_1_0" index="0" disallow="tram rail_urban rail rail_electric rail_fast ship" speed="7.56"
              length="15.51" shape="1513.00,1570.20 1511.71,1565.93 1512.28,1562.69 1514.71,1560.47 1519.01,1559.27"/>
    </edge>
    <edge id=":1370556749_2" function="internal">
        <lane id=":1370556749_2_0" index="0" disallow="tram rail_urban rail rail_electric rail_fast ship" speed="5.95"
              length="9.09" shape="1519.42,1562.45 1516.90,1563.15 1515.48,1564.45 1515.14,1566.35 1515.90,1568.85"/>
    </edge>
    <edge id=":1370556749_3" function="internal">
        <lane id=":1370556749_3_0" index="0" disallow="tram rail_urban rail rail_electric rail_fast ship" speed="8.33"
              length="14.86" shape="1519.42,1562.45 1515.09,1562.56 1511.53,1561.68 1508.76,1559.79 1506.77,1556.91"/>
    </edge>
    <edge id=":1370556749_4" function="internal">
        <lane id=":1370556749_4_0" index="0" disallow="tram rail_urban rail rail_electric rail_fast ship" speed="8.01"
              length="10.81" shape="1509.66,1555.54 1511.07,1557.52 1513.10,1558.80 1515.75,1559.39 1519.01,1559.27"/>
    </edge>
    <edge id=":1370556749_5" function="internal">
        <lane id=":1370556749_5_0" index="0" disallow="tram rail_urban rail rail_electric rail_fast ship" speed="8.33"
              length="14.71" shape="1509.66,1555.54 1515.90,1568.85"/>
    </edge>
    <edge id=":1370556758_0" function="internal">
        <lane id=":1370556758_0_0" index="0" disallow="tram rail_urban rail rail_electric rail_fast ship" speed="22.22"
              length="8.86" shape="1629.96,1757.17 1631.14,1759.52 1632.07,1761.06 1633.10,1762.55 1634.57,1764.73"/>
    </edge>
    <edge id=":1370556758_1" function="internal">
        <lane id=":1370556758_1_0" index="0" disallow="tram rail_urban rail rail_electric rail_fast ship" speed="9.43"
              length="9.15" shape="1629.96,1757.17 1630.82,1759.51 1631.17,1761.76 1631.01,1763.94 1630.35,1766.03"/>
    </edge>
    <edge id=":1370556767_0" function="internal">
        <lane id=":1370556767_0_0" index="0" disallow="tram rail_urban rail rail_electric rail_fast ship" speed="8.81"
              length="9.14" shape="1613.02,1770.60 1611.29,1769.22 1610.00,1767.48 1609.16,1765.37 1608.75,1762.91"/>
    </edge>
    <edge id=":1370556767_1" function="internal">
        <lane id=":1370556767_1_0" index="0" disallow="tram rail_urban rail rail_electric rail_fast ship" speed="22.22"
              length="9.18" shape="1608.65,1772.08 1608.77,1769.36 1608.87,1767.49 1608.89,1765.63 1608.75,1762.91"/>
    </edge>
    <edge id=":1370556777_0" function="internal">
        <lane id=":1370556777_0_0" index="0" disallow="tram rail_urban rail rail_electric rail_fast ship" speed="22.22"
              length="9.14" shape="1620.64,1746.97 1626.95,1753.59"/>
    </edge>
    <edge id=":1370556777_1" function="internal">
        <lane id=":1370556777_1_0" index="0" disallow="tram rail_urban rail rail_electric rail_fast ship" speed="8.98"
              length="9.11" shape="1618.53,1751.09 1620.92,1750.95 1623.12,1751.32 1625.13,1752.20 1626.95,1753.59"/>
    </edge>
    <edge id=":1370556778_0" function="internal">
        <lane id=":1370556778_0_0" index="0" disallow="tram rail_urban rail rail_electric rail_fast ship" speed="3.65"
              length="4.67" shape="1582.74,1548.40 1584.06,1548.99 1584.59,1549.71 1584.33,1550.56 1583.28,1551.56"/>
    </edge>
    <edge id=":1370556788_0" function="internal">
        <lane id=":1370556788_0_0" index="0" disallow="tram rail_urban rail rail_electric rail_fast ship" speed="7.90"
              length="12.39" shape="1628.85,1775.25 1625.68,1774.06 1622.80,1774.05 1620.22,1775.23 1617.92,1777.59"/>
    </edge>
    <edge id=":1370556788_1" function="internal">
        <lane id=":1370556788_1_0" index="0" disallow="tram rail_urban rail rail_electric rail_fast ship" speed="22.22"
              length="13.43" shape="1628.85,1775.25 1625.55,1774.16 1622.29,1773.89 1619.05,1773.56 1615.84,1772.34"/>
    </edge>
    <edge id=":1370556788_2" function="internal">
        <lane id=":1370556788_2_0" index="0" disallow="tram rail_urban rail rail_electric rail_fast ship" speed="22.22"
              length="13.12" shape="1628.02,1769.30 1625.36,1771.51 1622.74,1773.24 1620.24,1775.08 1617.92,1777.59"/>
    </edge>
    <edge id=":1370556788_3" function="internal">
        <lane id=":1370556788_3_0" index="0" disallow="tram rail_urban rail rail_electric rail_fast ship" speed="8.63"
              length="13.62" shape="1628.02,1769.30 1624.80,1771.92 1621.69,1773.30 1618.71,1773.44 1615.84,1772.34"/>
    </edge>
    <edge id=":1805901874_0" function="internal">
        <lane id=":1805901874_0_0" index="0"
              allow="private emergency authority army vip passenger hov taxi bus coach delivery truck trailer motorcycle evehicle custom1 custom2"
              speed="11.11" length="9.00"
              shape="742.63,2424.54 741.31,2422.20 740.33,2420.61 739.65,2418.92 739.22,2416.33"/>
    </edge>
    <edge id=":1805901874_1" function="internal">
        <lane id=":1805901874_1_0" index="0"
              allow="private emergency authority army vip passenger hov taxi bus coach delivery truck trailer motorcycle evehicle custom1 custom2"
              speed="11.11" length="8.99"
              shape="738.81,2425.29 739.09,2422.63 739.31,2420.81 739.39,2418.98 739.22,2416.33"/>
    </edge>
    <edge id=":1805901875_0" function="internal">
        <lane id=":1805901875_0_0" index="0"
              allow="private emergency authority army vip passenger hov taxi bus coach delivery truck trailer motorcycle evehicle custom1 custom2"
              speed="11.11" length="8.68"
              shape="747.28,2415.59 748.58,2417.75 749.83,2418.97 751.36,2419.97 753.47,2421.46"/>
    </edge>
    <edge id=":1805901875_1" function="internal">
        <lane id=":1805901875_1_0" index="0"
              allow="private emergency authority army vip passenger hov taxi bus coach delivery truck trailer motorcycle evehicle custom1 custom2"
              speed="11.11" length="8.68"
              shape="747.28,2415.59 748.37,2417.92 748.99,2419.57 749.49,2421.26 750.26,2423.72"/>
    </edge>
    <edge id=":1962002710_0" function="internal">
        <lane id=":1962002710_0_0" index="0" disallow="tram rail_urban rail rail_electric rail_fast ship" speed="10.70"
              length="5.35" shape="1470.17,2055.69 1469.90,2054.12 1469.72,2053.01 1469.80,2051.93 1470.29,2050.46"/>
    </edge>
    <edge id=":1962002710_1" function="internal">
        <lane id=":1962002710_1_0" index="0" disallow="tram rail_urban rail rail_electric rail_fast ship" speed="11.67"
              length="5.62" shape="1466.17,2054.08 1467.57,2053.15 1468.63,2052.58 1469.50,2051.85 1470.29,2050.46"/>
    </edge>
    <edge id=":3024587265_0" function="internal">
        <lane id=":3024587265_0_0" index="0" disallow="tram rail_urban rail rail_electric rail_fast ship" speed="8.33"
              length="3.17" shape="1440.01,1419.81 1438.25,1417.18"/>
    </edge>
    <edge id=":3024587265_1" function="internal">
        <lane id=":3024587265_1_0" index="0" disallow="tram rail_urban rail rail_electric rail_fast ship" speed="11.11"
              length="9.20" shape="1440.01,1419.81 1445.41,1412.36"/>
    </edge>
    <edge id=":3024587265_2" function="internal">
        <lane id=":3024587265_2_0" index="0" disallow="tram rail_urban rail rail_electric rail_fast ship" speed="3.86"
              length="0.79" shape="1440.90,1415.39 1441.56,1414.95"/>
    </edge>
    <edge id=":3024587265_3" function="internal">
        <lane id=":3024587265_3_0" index="0" disallow="tram rail_urban rail rail_electric rail_fast ship" speed="8.33"
              length="3.17" shape="1440.90,1415.39 1442.67,1418.02"/>
    </edge>
    <edge id=":3024587265_4" function="internal">
        <lane id=":3024587265_4_0" index="0" disallow="tram rail_urban rail rail_electric rail_fast ship" speed="3.86"
              length="4.64" shape="1441.56,1414.95 1445.41,1412.36"/>
    </edge>
    <edge id=":3960175900_0" function="internal">
        <lane id=":3960175900_0_0" index="0" disallow="tram rail_urban rail rail_electric rail_fast ship" speed="8.33"
              length="6.72" shape="977.23,2339.21 977.17,2337.27 976.74,2335.99 975.96,2334.79 974.86,2333.12"/>
    </edge>
    <edge id=":3960175900_1" function="internal">
        <lane id=":3960175900_1_0" index="0" disallow="tram rail_urban rail rail_electric rail_fast ship" speed="8.33"
              length="6.81" shape="977.23,2339.21 977.35,2337.20 977.59,2335.80 978.21,2334.55 979.42,2332.97"/>
    </edge>
    <edge id=":3960175904_0" function="internal">
        <lane id=":3960175904_0_0" index="0" disallow="tram rail_urban rail rail_electric rail_fast ship" speed="8.33"
              length="6.64" shape="980.50,2346.75 979.08,2345.43 978.30,2344.32 977.85,2343.01 977.39,2341.10"/>
    </edge>
    <edge id=":3960175904_1" function="internal">
        <lane id=":3960175904_1_0" index="0" disallow="tram rail_urban rail rail_electric rail_fast ship" speed="9.71"
              length="6.51" shape="975.99,2347.23 976.86,2345.50 977.45,2344.24 977.67,2342.94 977.39,2341.10"/>
    </edge>
    <edge id=":3960175906_0" function="internal">
        <lane id=":3960175906_0_0" index="0" disallow="tram rail_urban rail rail_electric rail_fast ship" speed="8.33"
              length="8.30" shape="984.48,2325.53 986.54,2326.88 987.94,2327.83 989.39,2328.69 991.61,2329.75"/>
    </edge>
    <edge id=":3960175906_1" function="internal">
        <lane id=":3960175906_1_0" index="0" disallow="tram rail_urban rail rail_electric rail_fast ship" speed="8.33"
              length="8.59" shape="983.36,2329.78 985.18,2328.97 987.16,2328.70 989.30,2328.96 991.61,2329.75"/>
    </edge>
    <edge id=":3960175907_0" function="internal">
        <lane id=":3960175907_0_0" index="0" disallow="tram rail_urban rail rail_electric rail_fast ship" speed="15.27"
              length="6.88" shape="991.96,2329.91 993.85,2330.58 995.23,2330.72 996.67,2330.60 998.71,2330.49"/>
    </edge>
    <edge id=":3960175907_1" function="internal">
        <lane id=":3960175907_1_0" index="0" disallow="tram rail_urban rail rail_electric rail_fast ship" speed="8.33"
              length="7.00" shape="991.96,2329.91 993.80,2330.82 994.92,2331.69 995.81,2332.85 996.90,2334.61"/>
    </edge>
    <edge id=":3960175909_0" function="internal">
        <lane id=":3960175909_0_0" index="0" disallow="tram rail_urban rail rail_electric rail_fast ship" speed="15.27"
              length="7.74" shape="990.48,2349.14 988.33,2349.86 986.94,2350.59 985.65,2351.53 983.75,2352.83"/>
    </edge>
    <edge id=":3960175909_1" function="internal">
        <lane id=":3960175909_1_0" index="0" disallow="tram rail_urban rail rail_electric rail_fast ship" speed="8.33"
              length="7.89" shape="990.48,2349.14 988.24,2349.66 986.63,2349.70 985.04,2349.29 982.86,2348.45"/>
    </edge>
    <edge id=":3960175916_0" function="internal">
        <lane id=":3960175916_0_0" index="0" disallow="tram rail_urban rail rail_electric rail_fast ship" speed="8.31"
              length="6.30" shape="1001.79,2339.32 1000.04,2340.24 998.68,2341.22 997.71,2342.25 997.12,2343.34"/>
    </edge>
    <edge id=":3960175916_1" function="internal">
        <lane id=":3960175916_1_0" index="0" disallow="tram rail_urban rail rail_electric rail_fast ship" speed="8.33"
              length="6.65" shape="997.68,2336.88 998.10,2338.78 998.12,2340.14 997.78,2341.48 997.12,2343.34"/>
    </edge>
    <edge id=":3981878142_0" function="internal">
        <lane id=":3981878142_0_0" index="0" disallow="tram rail_urban rail rail_electric rail_fast ship" speed="3.65"
              length="4.67" shape="1272.33,1642.67 1273.33,1643.71 1273.54,1644.58 1272.98,1645.27 1271.63,1645.79"/>
    </edge>
    <edge id=":4207399145_0" function="internal">
        <lane id=":4207399145_0_0" index="0" disallow="tram rail_urban rail rail_electric rail_fast ship" speed="3.65"
              length="4.67" shape="836.36,2094.54 835.14,2095.31 834.25,2095.35 833.68,2094.66 833.44,2093.24"/>
    </edge>
    <edge id=":429515548_0" function="internal">
        <lane id=":429515548_0_0" index="0" disallow="tram rail_urban rail rail_electric rail_fast ship" speed="3.65"
              length="4.67" shape="606.93,2465.72 605.62,2465.13 605.09,2464.40 605.35,2463.55 606.41,2462.56"/>
    </edge>
    <edge id=":429515568_0" function="internal">
        <lane id=":429515568_0_0" index="0" disallow="tram rail_urban rail rail_electric rail_fast ship" speed="18.06"
              length="0.75" shape="1018.67,2330.53 1018.49,2330.66 1018.37,2330.76 1018.25,2330.84 1018.05,2330.95"/>
    </edge>
    <edge id=":429515568_1" function="internal">
        <lane id=":429515568_1_0" index="0" disallow="tram rail_urban rail rail_electric rail_fast ship" speed="18.06"
              length="0.26" shape="1016.54,2328.14 1016.60,2328.11 1016.64,2328.07 1016.68,2328.03 1016.73,2327.98"/>
    </edge>
    <edge id=":4394618974_0" function="internal">
        <lane id=":4394618974_0_0" index="0" disallow="tram rail_urban rail rail_electric rail_fast ship" speed="6.51"
              length="9.03" shape="1099.25,1877.89 1096.94,1877.01 1094.90,1877.09 1093.13,1878.11 1091.64,1880.08"/>
    </edge>
    <edge id=":4394618974_1" function="internal">
        <lane id=":4394618974_1_0" index="0" disallow="tram rail_urban rail rail_electric rail_fast ship" speed="8.00"
              length="14.19" shape="1099.25,1877.89 1096.15,1875.55 1094.54,1872.77 1094.42,1869.57 1095.80,1865.93"/>
    </edge>
    <edge id=":4394618974_2" function="internal">
        <lane id=":4394618974_2_0" index="0" disallow="tram rail_urban rail rail_electric rail_fast ship" speed="6.51"
              length="9.03" shape="1098.60,1867.48 1097.72,1869.79 1097.80,1871.83 1098.82,1873.60 1100.80,1875.09"/>
    </edge>
    <edge id=":4394618974_3" function="internal">
        <lane id=":4394618974_3_0" index="0" disallow="tram rail_urban rail rail_electric rail_fast ship" speed="22.22"
              length="14.40" shape="1098.60,1867.48 1091.64,1880.08"/>
    </edge>
    <edge id=":4394618974_4" function="internal">
        <lane id=":4394618974_4_0" index="0" disallow="tram rail_urban rail rail_electric rail_fast ship" speed="22.22"
              length="14.40" shape="1088.84,1878.54 1095.80,1865.93"/>
    </edge>
    <edge id=":4394618974_5" function="internal">
        <lane id=":4394618974_5_0" index="0" disallow="tram rail_urban rail rail_electric rail_fast ship" speed="8.00"
              length="5.93" shape="1088.84,1878.54 1091.18,1875.43 1092.94,1874.41"/>
    </edge>
    <edge id=":4394618974_6" function="internal">
        <lane id=":4394618974_6_0" index="0" disallow="tram rail_urban rail rail_electric rail_fast ship" speed="8.00"
              length="8.26" shape="1092.94,1874.41 1093.96,1873.82 1097.16,1873.71 1100.80,1875.09"/>
    </edge>
    <edge id=":4397551462_0" function="internal">
        <lane id=":4397551462_0_0" index="0" disallow="tram rail_urban rail rail_electric rail_fast ship" speed="6.71"
              length="6.59" shape="1362.62,1965.56 1364.56,1966.41 1366.25,1966.77 1367.68,1966.66 1368.85,1966.07"/>
    </edge>
    <edge id=":4397551462_1" function="internal">
        <lane id=":4397551462_1_0" index="0" disallow="tram rail_urban rail rail_electric rail_fast ship" speed="8.34"
              length="8.92" shape="1366.78,1975.11 1365.25,1972.94 1364.35,1971.26 1363.26,1969.83 1361.14,1968.40"/>
    </edge>
    <edge id=":4397551462_2" function="internal">
        <lane id=":4397551462_2_0" index="0" disallow="tram rail_urban rail rail_electric rail_fast ship" speed="2.78"
              length="10.60" shape="1366.78,1975.11 1365.50,1972.90 1365.42,1970.65 1366.54,1968.37 1368.85,1966.07"/>
    </edge>
    <edge id=":4397551463_0" function="internal">
        <lane id=":4397551463_0_0" index="0" disallow="tram rail_urban rail rail_electric rail_fast ship" speed="2.78"
              length="5.61" shape="1376.65,1964.12 1376.31,1965.76 1376.01,1966.91 1375.95,1968.03 1376.33,1969.60"/>
    </edge>
    <edge id=":4397551463_1" function="internal">
        <lane id=":4397551463_1_0" index="0" disallow="tram rail_urban rail rail_electric rail_fast ship" speed="2.78"
              length="4.41" shape="1373.52,1966.43 1374.65,1967.07 1375.37,1967.64 1375.86,1968.40 1376.33,1969.60"/>
    </edge>
    <edge id=":4397551465_0" function="internal">
        <lane id=":4397551465_0_0" index="0" disallow="tram rail_urban rail rail_electric rail_fast ship" speed="2.78"
              length="4.78" shape="1369.01,1965.95 1372.49,1962.68"/>
    </edge>
    <edge id=":4397551465_1" function="internal">
        <lane id=":4397551465_1_0" index="0" disallow="tram rail_urban rail rail_electric rail_fast ship" speed="2.78"
              length="4.61" shape="1369.01,1965.95 1369.83,1965.53 1370.83,1965.45 1372.00,1965.72 1373.35,1966.33"/>
    </edge>
    <edge id=":4397551466_0" function="internal">
        <lane id=":4397551466_0_0" index="0" disallow="tram rail_urban rail rail_electric rail_fast ship" speed="8.34"
              length="10.47" shape="1378.27,1980.21 1375.65,1978.76 1373.51,1978.21 1371.33,1977.73 1368.56,1976.49"/>
    </edge>
    <edge id=":4397551466_1" function="internal">
        <lane id=":4397551466_1_0" index="0" disallow="tram rail_urban rail rail_electric rail_fast ship" speed="8.34"
              length="8.96" shape="1376.40,1969.79 1377.08,1972.39 1377.47,1974.29 1378.26,1975.90 1380.13,1977.61"/>
    </edge>
    <edge id=":4397551466_2" function="internal">
        <lane id=":4397551466_2_0" index="0" disallow="tram rail_urban rail rail_electric rail_fast ship" speed="2.78"
              length="17.85" shape="1376.40,1969.79 1377.73,1975.52 1376.86,1978.54 1373.81,1978.86 1368.56,1976.49"/>
    </edge>
    <edge id=":4397551473_0" function="internal">
        <lane id=":4397551473_0_0" index="0" disallow="tram rail_urban rail rail_electric rail_fast ship" speed="12.50"
              length="3.61" shape="1377.86,1960.66 1377.32,1961.58 1377.02,1962.25 1376.83,1962.96 1376.67,1964.02"/>
    </edge>
    <edge id=":4397551473_1" function="internal">
        <lane id=":4397551473_1_0" index="0" disallow="tram rail_urban rail rail_electric rail_fast ship" speed="12.50"
              length="4.33" shape="1372.64,1962.55 1373.54,1961.64 1374.06,1960.93 1374.48,1960.15 1375.10,1959.02"/>
    </edge>
    <edge id=":4398464858_0" function="internal">
        <lane id=":4398464858_0_0" index="0" disallow="tram rail_urban rail rail_electric rail_fast ship" speed="3.65"
              length="4.67" shape="1092.43,1521.42 1091.55,1522.56 1090.72,1522.91 1089.95,1522.45 1089.23,1521.20"/>
    </edge>
    <edge id=":4398486465_0" function="internal">
        <lane id=":4398486465_0_0" index="0" disallow="tram rail_urban rail rail_electric rail_fast ship" speed="22.22"
              length="2.97" shape="1283.66,1374.44 1286.57,1373.87"/>
    </edge>
    <edge id=":4398486465_1" function="internal">
        <lane id=":4398486465_1_0" index="0" disallow="tram rail_urban rail rail_electric rail_fast ship" speed="22.22"
              length="3.04" shape="1283.66,1374.44 1284.55,1374.32 1285.16,1374.33 1285.79,1374.41 1286.68,1374.51"/>
    </edge>
    <edge id=":4398486475_0" function="internal">
        <lane id=":4398486475_0_0" index="0" disallow="tram rail_urban rail rail_electric rail_fast ship" speed="22.22"
              length="9.28" shape="1274.41,1392.09 1265.13,1392.02"/>
    </edge>
    <edge id=":4398486475_1" function="internal">
        <lane id=":4398486475_1_0" index="0" disallow="tram rail_urban rail rail_electric rail_fast ship" speed="6.98"
              length="8.08" shape="1274.41,1392.09 1272.51,1391.79 1270.93,1390.87 1269.67,1389.34 1268.73,1387.19"/>
    </edge>
    <edge id=":4398487490_0" function="internal">
        <lane id=":4398487490_0_0" index="0" disallow="tram rail_urban rail rail_electric rail_fast ship" speed="18.06"
              length="0.37" shape="1316.64,1329.49 1316.28,1329.57"/>
    </edge>
    <edge id=":4398487490_1" function="internal">
        <lane id=":4398487490_1_0" index="0" disallow="tram rail_urban rail rail_electric rail_fast ship" speed="18.06"
              length="0.29" shape="1315.58,1326.45 1315.86,1326.38"/>
    </edge>
    <edge id=":4398487501_0" function="internal">
        <lane id=":4398487501_0_0" index="0" disallow="tram rail_urban rail rail_electric rail_fast ship" speed="21.83"
              length="18.47" shape="1257.49,1375.93 1261.70,1376.66 1266.63,1376.85 1271.58,1376.59 1275.85,1376.00"/>
    </edge>
    <edge id=":4398487501_1" function="internal">
        <lane id=":4398487501_1_0" index="0" disallow="tram rail_urban rail rail_electric rail_fast ship" speed="22.22"
              length="18.45" shape="1257.82,1379.90 1275.85,1376.00"/>
    </edge>
    <edge id=":4398487501_2" function="internal">
        <lane id=":4398487501_2_0" index="0" disallow="tram rail_urban rail rail_electric rail_fast ship" speed="8.80"
              length="8.64" shape="1269.59,1381.53 1270.87,1379.40 1272.34,1377.77 1274.00,1376.63 1275.85,1376.00"/>
    </edge>
    <edge id=":4398491172_0" function="internal">
        <lane id=":4398491172_0_0" index="0" disallow="tram rail_urban rail rail_electric rail_fast ship" speed="18.06"
              length="8.28" shape="1293.32,1375.01 1301.57,1375.71"/>
    </edge>
    <edge id=":4398491172_1" function="internal">
        <lane id=":4398491172_1_0" index="0" disallow="tram rail_urban rail rail_electric rail_fast ship" speed="7.73"
              length="7.60" shape="1293.32,1375.01 1294.83,1375.40 1296.25,1376.33 1297.57,1377.80 1298.81,1379.82"/>
    </edge>
    <edge id=":4398491173_0" function="internal">
        <lane id=":4398491173_0_0" index="0" disallow="tram rail_urban rail rail_electric rail_fast ship" speed="13.89"
              length="24.20" shape="1294.06,1396.13 1291.19,1400.36 1288.16,1406.57 1285.32,1412.93 1283.03,1417.61"/>
    </edge>
    <edge id=":4398491173_1" function="internal">
        <lane id=":4398491173_1_0" index="0" disallow="tram rail_urban rail rail_electric rail_fast ship" speed="13.89"
              length="7.48" shape="1294.06,1396.13 1290.56,1399.79 1288.87,1401.51"/>
    </edge>
    <edge id=":4398491173_6" function="internal">
        <lane id=":4398491173_6_0" index="0" disallow="tram rail_urban rail rail_electric rail_fast ship" speed="13.89"
              length="15.12" shape="1288.87,1401.51 1285.98,1404.45 1281.13,1408.51 1276.84,1410.37"/>
    </edge>
    <edge id=":4398491173_2" function="internal">