<routes>
    <trip id="foe.0" depart="0.0" from="62166872" to="-906615585" color="green">
        <stop parkingArea="biblioteca" duration="1000.0"/>
    </trip>
    <trip id="foe.1" depart="10.0" from="62166872" to="-906615585" color="green">
        <stop parkingArea="biblioteca" duration="1000.0"/>
    </trip>
    <trip id="foe.2" depart="20.0" from="62166872" to="-906615585" color="green">
        <stop parkingArea="biblioteca" duration="1000.0"/>
    </trip>
    <trip id="foe.3" depart="30.0" from="62166872" to="-906615585" color="green">
        <stop parkingArea="biblioteca" duration="1000.0"/>
    </trip>
    <trip id="foe.4" depart="40.0" from="62166872" to="-906615585" color="green">
        <stop parkingArea="biblioteca" duration="1000.0"/>
    </trip>
    <trip id="foe.5" depart="50.0" from="62166872" to="-906615585" color="green">
        <stop parkingArea="biblioteca" duration="1000.0"/>
    </trip>
    <trip id="foe.6" depart="60.0" from="62166872" to="-906615585" color="green">
        <stop parkingArea="biblioteca" duration="1000.0"/>
    </trip>
    <trip id="foe.7" depart="70.0" from="62166872" to="-906615585" color="green">
        <stop parkingArea="biblioteca" duration="1000.0"/>
    </trip>
    <trip id="foe.8" depart="80.0" from="62166872" to="-906615585" color="green">
        <stop parkingArea="biblioteca" duration="1000.0"/>
    </trip>
    <trip id="foe.9" depart="90.0" from="62166872" to="-906615585" color="green">
        <stop parkingArea="biblioteca" duration="1000.0"/>
    </trip>
    <trip id="foe.10" depart="100.0" from="62166872" to="-906615585" color="green">
        <stop parkingArea="biblioteca" duration="1000.0"/>
    </trip>
    <trip id="foe.11" depart="110.0" from="62166872" to="-906615585" color="green">
        <stop parkingArea="biblioteca" duration="1000.0"/>
    </trip>
    <trip id="foe.12" depart="120.0" from="62166872" to="-906615585" color="green">
        <stop parkingArea="biblioteca" duration="1000.0"/>
    </trip>
    <trip id="foe.13" depart="130.0" from="62166872" to="-906615585" color="green">
        <stop parkingArea="biblioteca" duration="1000.0"/>
    </trip>
    <trip id="foe.14" depart="140.0" from="62166872" to="-906615585" color="green">
        <stop parkingArea="biblioteca" duration="1000.0"/>
    </trip>
    <trip id="foe.15" depart="150.0" from="62166872" to="-906615585" color="green">
        <stop parkingArea="biblioteca" duration="1000.0"/>
    </trip>
    <trip id="foe.16" depart="160.0" from="62166872" to="-906615585" color="green">
        <stop parkingArea="biblioteca" duration="1000.0"/>
    </trip>
    <trip id="foe.17" depart="170.0" from="62166872" to="-906615585" color="green">
        <stop parkingArea="biblioteca" duration="1000.0"/>
    </trip>
    <trip id="foe.18" depart="180.0" from="62166872" to="-906615585" color="green">
        <stop parkingArea="biblioteca" duration="1000.0"/>
    </trip>
    <trip id="foe.19" depart="190.0" from="62166872" to="-906615585" color="green">
        <stop parkingArea="biblioteca" duration="1000.0"/>
    </trip>
    <trip id="foe.20" depart="200.0" from="62166872" to="-906615585" color="green">
        <stop parkingArea="biblioteca" duration="1000.0"/>
    </trip>
    <trip id="foe.21" depart="210.0" from="62166872" to="-906615585" color="green">
        <stop parkingArea="biblioteca" duration="1000.0"/>
    </trip>
    <trip id="foe.22" depart="220.0" from="62166872" to="-906615585" color="green">
        <stop parkingArea="biblioteca" duration="1000.0"/>
    </trip>
    <trip id="foe.23" depart="230.0" from="62166872" to="-906615585" color="green">
        <stop parkingArea="biblioteca" duration="1000.0"/>
    </trip>
    <trip id="foe.24" depart="240.0" from="62166872" to="-906615585" color="green">
        <stop parkingArea="biblioteca" duration="1000.0"/>
    </trip>
    <trip id="foe.25" depart="250.0" from="62166872" to="-906615585" color="green">
        <stop parkingArea="biblioteca" duration="1000.0"/>
    </trip>
    <trip id="foe.26" depart="260.0" from="62166872" to="-906615585" color="green">
        <stop parkingArea="biblioteca" duration="1000.0"/>
    </trip>
    <trip id="foe.27" depart="270.0" from="62166872" to="-906615585" color="green">
        <stop parkingArea="biblioteca" duration="1000.0"/>
    </trip>
    <trip id="foe.28" depart="280.0" from="62166872" to="-906615585" color="green">
        <stop parkingArea="biblioteca" duration="1000.0"/>
    </trip>
    <trip id="foe.29" depart="290.0" from="62166872" to="-906615585" color="green">
        <stop parkingArea="biblioteca" duration="1000.0"/>
    </trip>
    <trip id="foe.30" depart="300.0" from="62166872" to="-906615585" color="green">
        <stop parkingArea="biblioteca" duration="1000.0"/>
    </trip>
    <trip id="foe.31" depart="310.0" from="62166872" to="-906615585" color="green">
        <stop parkingArea="biblioteca" duration="1000.0"/>
    </trip>
    <trip id="foe.32" depart="320.0" from="62166872" to="-906615585" color="green">
        <stop parkingArea="biblioteca" duration="1000.0"/>
    </trip>
    <trip id="foe.33" depart="330.0" from="62166872" to="-906615585" color="green">
        <stop parkingArea="biblioteca" duration="1000.0"/>
    </trip>
    <trip id="foe.34" depart="340.0" from="62166872" to="-906615585" color="green">
        <stop parkingArea="biblioteca" duration="1000.0"/>
    </trip>
    <trip id="foe.35" depart="350.0" from="62166872" to="-906615585" color="green">
        <stop parkingArea="biblioteca" duration="1000.0"/>
    </trip>
    <trip id="foe.36" depart="360.0" from="62166872" to="-906615585" color="green">
        <stop parkingArea="biblioteca" duration="1000.0"/>
    </trip>
    <trip id="foe.37" depart="370.0" from="62166872" to="-906615585" color="green">
        <stop parkingArea="biblioteca" duration="1000.0"/>
    </trip>
    <trip id="foe.38" depart="380.0" from="62166872" to="-906615585" color="green">
        <stop parkingArea="biblioteca" duration="1000.0"/>
    </trip>
    <trip id="foe.39" depart="390.0" from="62166872" to="-906615585" color="green">
        <stop parkingArea="biblioteca" duration="1000.0"/>
    </trip>
    <trip id="foe.40" depart="400.0" from="62166872" to="-906615585" color="green">
        <stop parkingArea="biblioteca" duration="1000.0"/>
    </trip>
    <trip id="foe.41" depart="410.0" from="62166872" to="-906615585" color="green">
        <stop parkingArea="biblioteca" duration="1000.0"/>
    </trip>
    <trip id="foe.42" depart="420.0" from="62166872" to="-906615585" color="green">
        <stop parkingArea="biblioteca" duration="1000.0"/>
    </trip>
    <trip id="foe.43" depart="430.0" from="62166872" to="-906615585" color="green">
        <stop parkingArea="biblioteca" duration="1000.0"/>
    </trip>
    <trip id="foe.44" depart="440.0" from="62166872" to="-906615585" color="green">
        <stop parkingArea="biblioteca" duration="1000.0"/>
    </trip>
    <trip id="foe.45" depart="450.0" from="62166872" to="-906615585" color="green">
        <stop parkingArea="biblioteca" duration="1000.0"/>
    </trip>
    <trip id="foe.46" depart="460.0" from="62166872" to="-906615585" color="green">
        <stop parkingArea="biblioteca" duration="1000.0"/>
    </trip>
    <trip id="foe.47" depart="470.0" from="62166872" to="-906615585" color="green">
        <stop parkingArea="biblioteca" duration="1000.0"/>
    </trip>
    <trip id="foe.48" depart="480.0" from="62166872" to="-906615585" color="green">
        <stop parkingArea="biblioteca" duration="1000.0"/>
    </trip>
    <trip id="foe.49" depart="490.0" from="62166872" to="-906615585" color="green">
        <stop parkingArea="biblioteca" duration="1000.0"/>
    </trip>
    <trip id="foe.50" depart="500.0" from="62166872" to="-906615585" color="green">
        <stop parkingArea="biblioteca" duration="1000.0"/>
    </trip>
    <trip id="foe.51" depart="510.0" from="62166872" to="-906615585" color="green">
        <stop parkingArea="biblioteca" duration="1000.0"/>
    </trip>
    <trip id="foe.52" depart="520.0" from="62166872" to="-906615585" color="green">
        <stop parkingArea="biblioteca" duration="1000.0"/>
    </trip>
    <trip id="foe.53" depart="530.0" from="62166872" to="-906615585" color="green">
        <stop parkingArea="biblioteca" duration="1000.0"/>
    </trip>
    <trip id="foe.54" depart="540.0" from="62166872" to="-906615585" color="green">
        <stop parkingArea="biblioteca" duration="1000.0"/>
    </trip>
    <trip id="foe.55" depart="550.0" from="62166872" to="-906615585" color="green">
        <stop parkingArea="biblioteca" duration="1000.0"/>
    </trip>
    <trip id="foe.56" depart="560.0" from="62166872" to="-906615585" color="green">
        <stop parkingArea="biblioteca" duration="1000.0"/>
    </trip>
    <trip id="foe.57" depart="570.0" from="62166872" to="-906615585" color="green">
        <stop parkingArea="biblioteca" duration="1000.0"/>
    </trip>
    <trip id="foe.58" depart="580.0" from="62166872" to="-906615585" color="green">
        <stop parkingArea="biblioteca" duration="1000.0"/>
    </trip>
    <trip id="foe.59" depart="590.0" from="62166872" to="-906615585" color="green">
        <stop parkingArea="biblioteca" duration="1000.0"/>
    </trip>
    <trip id="foe.60" depart="600.0" from="62166872" to="-906615585" color="green">
        <stop parkingArea="biblioteca" duration="1000.0"/>
    </trip>
    <trip id="foe.61" depart="610.0" from="62166872" to="-906615585" color="green">
        <stop parkingArea="biblioteca" duration="1000.0"/>
    </trip>
    <trip id="foe.62" depart="620.0" from="62166872" to="-906615585" color="green">
        <stop parkingArea="biblioteca" duration="1000.0"/>
    </trip>
    <trip id="foe.63" depart="630.0" from="62166872" to="-906615585" color="green">
        <stop parkingArea="biblioteca" duration="1000.0"/>
    </trip>
    <trip id="foe.64" depart="640.0" from="62166872" to="-906615585" color="green">
        <stop parkingArea="biblioteca" duration="1000.0"/>
    </trip>
    <trip id="foe.65" depart="650.0" from="62166872" to="-906615585" color="green">
        <stop parkingArea="biblioteca" duration="1000.0"/>
    </trip>
    <trip id="foe.66" depart="660.0" from="62166872" to="-906615585" color="green">
        <stop parkingArea="biblioteca" duration="1000.0"/>
    </trip>
    <trip id="foe.67" depart="670.0" from="62166872" to="-906615585" color="green">
        <stop parkingArea="biblioteca" duration="1000.0"/>
    </trip>
    <trip id="foe.68" depart="680.0" from="62166872" to="-906615585" color="green">
        <stop parkingArea="biblioteca" duration="1000.0"/>
    </trip>
    <trip id="foe.69" depart="690.0" from="62166872" to="-906615585" color="green">
        <stop parkingArea="biblioteca" duration="1000.0"/>
    </trip>
    <trip id="foe.70" depart="700.0" from="62166872" to="-906615585" color="green">
        <stop parkingArea="biblioteca" duration="1000.0"/>
    </trip>
    <trip id="foe.71" depart="710.0" from="62166872" to="-906615585" color="green">
        <stop parkingArea="biblioteca" duration="1000.0"/>
    </trip>
    <trip id="foe.72" depart="720.0" from="62166872" to="-906615585" color="green">
        <stop parkingArea="biblioteca" duration="1000.0"/>
    </trip>
    <trip id="foe.73" depart="730.0" from="62166872" to="-906615585" color="green">
        <stop parkingArea="biblioteca" duration="1000.0"/>
    </trip>
    <trip id="foe.74" depart="740.0" from="62166872" to="-906615585" color="green">
        <stop parkingArea="biblioteca" duration="1000.0"/>
    </trip>
</routes>