<?xml version="1.0" encoding="UTF-8"?>

<!-- generated on 04/19/21 17:56:12 by Eclipse SUMO duarouter Version 1.8.0
<configuration xmlns:xsi="http://www.w3.org/2001/XMLSchema-instance" xsi:noNamespaceSchemaLocation="http://sumo.dlr.de/xsd/duarouterConfiguration.xsd">

    <input>
        <net-file value="sumo_files/osm.net.xml"/>
        <route-files value="trips.trips.xml"/>
    </input>

    <output>
        <output-file value="sumo_files/routes_contribs.rou.xml"/>
        <alternatives-output value="sumo_files/routes_contribs.rou.alt.xml"/>
    </output>

    <processing>
        <remove-loops value="true"/>
    </processing>

    <time>
        <begin value="0"/>
        <end value="100"/>
    </time>

    <report>
        <no-warnings value="true"/>
        <ignore-errors value="true"/>
        <no-step-log value="true"/>
    </report>

</configuration>
-->

<routes xmlns:xsi="http://www.w3.org/2001/XMLSchema-instance"
        xsi:noNamespaceSchemaLocation="http://sumo.dlr.de/xsd/routes_file.xsd">
    <vehicle id="0" depart="0.00">
        <route edges="-79396155#1 -79396116#4 -79396116#3 -79396110#2 82534335#2 82534335#3 82534335#4 -441754000#2 906511008 82534343#4 82534343#5 82534343#6 -392822665#7 -392822665#6 -392822665#5 -392822665#3 -392822665#1 -392822665#0 392822666 392822664#3 392822664#4 392822664#5 392822664#0 392822664#1 392822663 392822665#0 392822665#1 -587489968#1 -587489968#0 587489968#0 587489968#1 -392822665#1 -392822665#0 392822666 392822664#3 392822664#4 392822664#5 79262672#0 79262672#1 906615576#0 79262633#1 79262633#4 79262633#9 79262633#15 79262663#0 79396139#0 -79396109#2 906498862 79396163#0 79396163#1 79396163#2"/>
    </vehicle>
    <vehicle id="1" depart="1.00">
        <route edges="906615580#1 79262633#1 906615580#0 -906615585 441755466 906615580#1 79262633#1 79262633#4 79262633#9 79262633#15 79262663#0"/>
    </vehicle>
    <vehicle id="2" depart="2.00">
        <route edges="-82534324#0 -79396110#5 -79396110#2 82534335#2 82534335#3 82534335#4 -441754000#2 906511008 82534343#4 82534343#5 82534343#6 -392822665#7 -392822665#6 -392822665#5 -392822665#3 -392822665#1 -392822665#0 392822666 392822664#3 392822664#4 392822664#5 392822664#0 392822664#1 392822663 392822665#0 392822665#1 -587489968#1 -587489968#0 587489968#0 587489968#1 -392822665#1 -392822665#0 392822666 392822664#3 392822664#4 392822664#5 79262672#0 79262672#1 906615576#0 79262633#1 79262633#4 79262633#9 79262633#15 444635707 79262674 -79396183#3"/>
    </vehicle>
    <vehicle id="3" depart="3.00">
        <route edges="906615576#0 79262633#1 79262633#4 79262633#9 79262633#15 79262663#0 79396139#0 -79396109#2 906498862 79396163#0 79396163#1 79396145 758800288#1 758800287 442156760#2 442156759#1 442156759#2 442156759#3 442156759#4 442156760#0 -79867013#3 298563412#1 298563412 298563412#2 122726134#1 442156756 442156759#4 442156760#0 -79867013#3 -79867013#1 -79867013#0 84678475 122726140#2 122726140#4 84678483 -110971342#2"/>
    </vehicle>
    <vehicle id="4" depart="4.00">
        <route edges="-587489968#1 -587489968#0 587489968#0 587489968#1 -392822665#1 -392822665#0 392822666 392822664#3 392822664#4 392822664#5 79262672#0 79262672#1 906615576#0 79262633#1 906615580#0 -906615585 441755466 906615580#1 -79262633#0 110971340#0 392822664#1 392822663 392822665#0 392822665#1 392822665#2 392822665#4 441702871 82534343#3 82534343#4 110971337 110971342#0 122726139 122726140#0 122726125 79867013#0 79867013#1 79867013#2"/>
    </vehicle>
    <vehicle id="5" depart="5.00">
        <route edges="-906498865 -442062982#1 442062984#1 82534335#4 -441754000#2 906511008 82534343#4 82534343#5 82534343#6 -392822665#7 -392822665#6 -392822665#5 -392822665#3 -392822665#1 -392822665#0 392822666 392822664#3 392822664#4 392822664#5 392822664#0 392822664#1 392822663 392822665#0 392822665#1 -587489968#1 -587489968#0 587489968#0 587489968#1 -392822665#1 -392822665#0 392822666 392822664#3 392822664#4 392822664#5 392822664#0 392822664#1 392822663 392822665#0 392822665#1 392822665#2 392822665#4 441702871 82534343#3 82534343#4 110971337 110971342#0 122726139 122726140#0 122726140#1 122726140#2 122726140#4 84678483 -110971342#2 110971334"/>
    </vehicle>
    <vehicle id="6" depart="6.00">
        <route edges="443232854 442062982#8 442062982#10 79396109#0 79396109#3 -79262663#0 -79262633#16 -79262633#14 -79262633#8 -79262633#3 -79262633#0 110971340#0 392822664#1 392822663 392822665#0 392822665#1 -587489968#1 -587489968#0 587489968#0 587489968#1 -392822665#1 -392822665#0 392822666 392822664#3 392822667 -147391538#5 -147391538#3 169424742 62166875#1"/>
    </vehicle>
    <vehicle id="7" depart="7.00">
        <route edges="-79264323 -79264326#0 79264372#1 -292874238#0 -891016337#2 -79262663#6 -79262663#2 -79262663#0 -79262633#16 -79262633#14 -79262633#8 -79262633#3 -79262633#0 110971340#0 392822664#1 392822663 392822665#0 392822665#1 -587489968#1 -587489968#0 587489968#0 587489968#1 -392822665#1 -392822665#0 392822666 392822664#3 392822664#4 392822664#5 79262672#0 79262672#1 906615576#0 79262633#1 79262633#4 79262633#9 79262633#15 79262663#0 79396139#0 -79396109#2 906498862 79396163#0 79396163#1 79396145 758800288#1 758800287 442156760#2 442156759#1 442156759#2 442156759#3 442156759#4 442156760#0 -79867013#3 298563412#1"/>
    </vehicle>
    <vehicle id="8" depart="8.00">
        <route edges="-392822665#3 -392822665#1 -392822665#0 392822666 392822664#3 392822664#4 392822664#5 392822664#0 392822664#1 392822663 392822665#0 392822665#1 -587489968#1 -587489968#0 587489968#0 587489968#1 -392822665#1 -392822665#0 392822666 392822664#3 392822664#4 392822664#5 79262672#0 79262672#1 906615576#0 79262633#1 79262633#4 79262633#9 79262633#15 79262663#0 79396139#0 -79396109#2 -442062982#10 -442062982#9 -442062982#7 -442062982#4 -442062982#2 -442062982#1 442062984#1 82534335#4 82534335#1 79396110#0 79396110#3 82534324#0 82534324#1"/>
    </vehicle>
    <vehicle id="9" depart="9.00">
        <route edges="442156759#3 442156759#4 442156759#0 442156757 -84678509#2 442156982 758800288#1 906498861 79262635#0 79396109#0 79396109#3 -79262663#0 -79262633#16 -79262633#14 -79262633#8 906615580#0 -906615585 441755466 906615580#1 79262633#1 79262633#4 79262633#9 79262633#15 79262663#0 79396139#0 -79396109#2 906498862 442154682#0"/>
    </vehicle>
    <vehicle id="10" depart="10.00">
        <route edges="442062982#6 442062982#8 442062982#10 906498862 79396163#0 79396163#1 79396145 758800288#1 758800287 442156760#2 442156759#1 442156759#2 442156759#3 442156759#4 442156760#0 -79867013#3 298563412#1 298563412 298563412#2 122726134#1 442156756 442156759#4 442156760#0 -79867013#3 -79867013#1 -79867013#0 84678475 122726140#2 84678515 442152904 -442152904 442152905"/>
    </vehicle>
    <vehicle id="11" depart="11.00">
        <route edges="441702871 82534343#3 82534343#4 82534343#5 82534343#6 -392822665#7 -392822665#6 -392822665#5 -392822665#3 -392822665#1 -392822665#0 392822666 392822664#3 392822664#4 392822664#5 79262672#0 79262672#1 906615576#0 79262633#1 906615580#0 -906615585 441755466 906615580#1 -79262633#0 110971340#0 392822664#1 392822663 392822665#0 392822665#1 392822665#2 392822665#4 441702871 82534343#3 82534343#4 110971337 110971342#0 122726139 122726140#0 122726125 79867013#0"/>
    </vehicle>
    <vehicle id="12" depart="12.00">
        <route edges="79396150#0 442154682#1 79396163#1 79396145 758800288#1 906498861 79262635#0 79396109#0 79396109#3 -79262663#0 -79262633#16 -79262633#14 -79262633#8 906615580#0 -906615585 441755466 906615580#1 79262633#1 79262633#4 79262633#9 79262633#15 79262663#0 79262663#1 79262663#3 891016337#0 292874238#0"/>
    </vehicle>
    <vehicle id="13" depart="13.00">
        <route edges="-79262657#3 292874238#3 110971340#0 392822664#1 392822663 392822665#0 392822665#1 -587489968#1 -587489968#0 587489968#0 587489968#1 -392822665#1 -392822665#0 392822666 392822664#3 392822664#4 392822664#5 79262672#0 79262672#1 906615576#0 79262633#1 79262633#4 79262633#9 79262633#15 79262663#0 79262663#1 79262663#3 891016337#0 292874238#0 292874238#1"/>
    </vehicle>
    <vehicle id="14" depart="14.00">
        <route edges="758800288#1 906498861 79262635#0 79396109#0 79396109#3 -79262663#0 -79262633#16 -79262633#14 -79262633#8 -79262633#3 -79262633#0 110971340#0 392822664#1 392822663 392822665#0 392822665#1 -587489968#1 -587489968#0 587489968#0 587489968#1 -392822665#1 -392822665#0 392822666 392822664#3 392822664#4 392822664#5 79262672#0 79262672#1 906615576#0 79262633#1 79262633#4 79262633#9 79262633#15 79262663#0 79262663#1 79262663#3 79262655#0"/>
    </vehicle>
    <vehicle id="15" depart="15.00">
        <route edges="-79264326#0 79264372#1 -292874238#0 -891016337#2 -79262663#6 -79262663#2 -79262663#0 -79262633#16 -79262633#14 -79262633#8 -79262633#3 -79262633#0 110971340#0 392822664#1 392822663 392822665#0 392822665#1 -587489968#1 -587489968#0 587489968#0 587489968#1 -392822665#1 -392822665#0 392822666 392822664#3 392822664#4 392822664#5 392822664#0 392822664#1 392822663 392822665#0 392822665#1 392822665#2 392822665#4 441702871"/>
    </vehicle>
    <vehicle id="16" depart="16.00">
        <route edges="79396116#0 79396116#4 79396116#5 443232790#0 442062982#6 442062982#8 442062982#10 906498862 79396163#0 79396163#1 79396145 758800288#1 758800287 442156760#2 442156759#1 442156759#2 442156759#3 442156759#4 442156760#0 -79867013#3 298563412#1 298563412 298563412#2 122726134#1 442156756 442156759#4 442156759#0 442156757 -84678509#2 442156982 758800288#1 906498861 79262635#0 79396109#0 79396109#3 79262663#1 79262663#3 891016337#0 292874238#0 292874238#1 79262664#0"/>
    </vehicle>
    <vehicle id="17" depart="17.00">
        <route edges="441755466 906615580#1 -79262633#0 110971340#0 392822664#1 392822663 392822665#0 392822665#1 -587489968#1 -587489968#0 587489968#0 587489968#1 -392822665#1 -392822665#0 392822666 392822664#3 392822664#4 392822664#5 79262672#0 79262672#1 906615576#0 79262633#1 79262633#4 79262633#9 79262633#15 79262663#0 79396139#0 -79396109#2 -442062982#10 -442062982#9 -442062982#7 -442062982#4 -442062982#2 -442062982#1 442062984#1 82534335#4 82534335#1 79396110#0 79396110#3"/>
    </vehicle>
    <vehicle id="18" depart="18.00">
        <route edges="-906498865 442062982#2 442062982#3 442062982#6 442062982#8 442062982#10 79396109#0 79396109#3 -79262663#0 -79262633#16 -79262633#14 -79262633#8 906615580#0 -906615585 441755466 906615580#1 79262633#1 79262633#4 79262633#9 79262633#15 79262663#0 79262663#1 79262663#3"/>
    </vehicle>
    <vehicle id="19" depart="19.00">
        <route edges="892584574#1 -891016337#2 -79262663#6 -79262663#2 79396139#0 -79396109#2 906498862 79396163#0 79396163#1 79396145 758800288#1 758800287 442156760#2 442156759#1 442156759#2 442156759#3 442156759#4 442156760#0 -79867013#3 298563412#1 298563412 298563412#2 122726134#1 442156756 442156759#4 442156759#0 442156757 -84678509#2 442156982 758800288#1 906498861 79262635#0 79396109#0 79396109#3 79262663#1 79262663#3 891016337#0 292874238#0 292874238#1 292874238#2"/>
    </vehicle>
    <vehicle id="20" depart="20.00">
        <route edges="79262633#1 906615580#0 -906615585 441755466 906615580#1 -79262633#0 110971340#0 392822664#1 392822663 392822665#0 392822665#1 392822665#2"/>
    </vehicle>
    <vehicle id="21" depart="21.00">
        <route edges="147391538#3 147391538#4 392822668 392822664#5 79262672#0 79262672#1 906615576#0 79262633#1 906615580#0 -906615585 441755466 906615580#1 -79262633#0 110971340#0 392822664#1 392822663 392822665#0 392822665#1 392822665#2 392822665#4 441702871 82534343#3 82534343#4 110971337 110971342#0 122726139 122726140#0 122726140#1 122726140#2 84678515"/>
    </vehicle>
    <vehicle id="22" depart="22.00">
        <route edges="82534343#5 82534343#6 -392822665#7 -392822665#6 -392822665#5 -392822665#3 -392822665#1 -392822665#0 392822666 392822664#3 392822664#4 392822664#5 392822664#0 392822664#1 392822663 392822665#0 392822665#1 -587489968#1 -587489968#0 587489968#0 587489968#1 -392822665#1 -392822665#0 392822666 392822664#3 392822664#4 392822664#5 79262672#0 79262672#1 906615576#0 79262633#1 79262633#4 79262633#9 79262633#15 79262663#0 79396139#0 -79396109#2 -442062982#10 -442062982#9"/>
    </vehicle>
    <vehicle id="23" depart="23.00">
        <route edges="-84678509#2 442156982 758800288#1 906498861 79262635#0 79396109#0 79396109#3 -79262663#0 -79262633#16 -79262633#14 -79262633#8 -79262633#3 -79262633#0 110971340#0 392822664#1 392822663 392822665#0 392822665#1 -587489968#1 -587489968#0 587489968#0 587489968#1 -392822665#1 -392822665#0 392822666 392822664#3 392822664#4 392822664#5 79262672#0 79262672#1 906615576#0 79262633#1 79262633#4 79262633#9 79262633#15 79262663#0"/>
    </vehicle>
    <vehicle id="24" depart="24.00">
        <route edges="442154357 442156759#2 442156759#3 442156759#4 442156760#0 -79867013#3 298563412#1 298563412 298563412#2 122726134#1 442156756 442156759#4 442156759#0 442156757"/>
    </vehicle>
    <vehicle id="25" depart="25.00">
        <route edges="-79867013#1 122726116 -122726137 79867013#1 298563412#1 298563412 298563412#2 122726134#1 442156756 442156759#4 442156760#0 -79867013#3 -79867013#1 -79867013#0 84678475 122726140#2"/>
    </vehicle>
    <vehicle id="26" depart="26.00">
        <route edges="442156757 -84678509#2 442156982 758800288#1 906498861 79262635#0 79396109#0 79396109#3 -79262663#0 -79262633#16 -79262633#14 -79262633#8 -79262633#3 -79262633#0 110971340#0 392822664#1 392822663 392822665#0 392822665#1 -587489968#1 -587489968#0 587489968#0 587489968#1 -392822665#1 -392822665#0 392822666 392822664#3 392822664#4 392822664#5 79262672#0 79262672#1 -292874238#4 -292874238#2 -292874238#1"/>
    </vehicle>
    <vehicle id="27" depart="27.00">
        <route edges="79262633#9 79262633#15 79262663#0 79396139#0 -79396109#2 906498862 79396163#0 79396163#1 79396145 758800288#1 758800287 442156760#2 442156759#1 442156759#2 442156759#3 442156759#4 442156760#0 -79867013#3 298563412#1 298563412 298563412#2 122726134#1 442156756 442156759#4 442156759#0 442156757 -84678509#2 442156982 758800288#1"/>
    </vehicle>
    <vehicle id="28" depart="28.00">
        <route edges="-79396099 79396116#4 79396116#5 443232790#0 442062982#6 442062982#8 442062982#10 79396109#0 79396109#3 -79262663#0 -79262633#16 -79262633#14 -79262633#8 906615580#0 -906615585 441755466 906615580#1 79262633#1 79262633#4 79262633#9 79262633#15 79262663#0 79396139#0 -79396109#2 906498862 79396163#0 79396163#1 79396145 758800288#1 758800287"/>
    </vehicle>
    <vehicle id="29" depart="29.00">
        <route edges="442156757 -84678509#2 442156982 758800288#1 906498861 79262635#0 79396109#0 79396109#3 -79262663#0 -79262633#16 -79262633#14 -79262633#8 906615580#0 -906615585 441755466 906615580#1 79262633#1 79262633#4 79262633#9 79262633#15 79262663#0 79396139#0 -79396109#2 906498862 79396163#0 79396163#1 79396163#2 892584574#0"/>
    </vehicle>
    <vehicle id="30" depart="30.00">
        <route edges="292874238#1 292874238#2 292874238#3 906615576#0 79262633#1 906615580#0 -906615585 441755466 906615580#1 79262633#1 79262633#4 79262633#9 79262633#15 79262663#0 79396139#0 -79396109#2 906498862 79396163#0 79396163#1 79396145 758800288#1 758800287 442156760#2 442156759#1"/>
    </vehicle>
    <vehicle id="31" depart="31.00">
        <route edges="-79396109#2 906498862 79396163#0 79396163#1 79396145 758800288#1 906498861 79262635#0 79396109#0 79396109#3 -79262663#0 -79262633#16 -79262633#14 -79262633#8 906615580#0 -906615585 441755466 906615580#1 79262633#1 79262633#4 79262633#9 79262633#15 79262663#0 79396139#0 -79396109#2 -442062982#10 -442062982#9 -442062982#7"/>
    </vehicle>
    <vehicle id="32" depart="32.00">
        <route edges="-79264326#0 79264372#1 -292874238#0 -891016337#2 -79262663#6 -79262663#2 -79262663#0 -79262633#16 -79262633#14 -79262633#8 906615580#0 -906615585 441755466 906615580#1 79262633#1 79262633#4 79262633#9 79262633#15 444635707 79262674 79396124#0 906511011#0"/>
    </vehicle>
    <vehicle id="33" depart="33.00">
        <route edges="79396163#0 79396163#1 79396145 758800288#1 906498861 79262635#0 79396109#0 79396109#3 -79262663#0 -79262633#16 -79262633#14 -79262633#8 -79262633#3 -79262633#0 110971340#0 392822664#1 392822663 392822665#0 392822665#1 -587489968#1 -587489968#0 587489968#0 587489968#1 -392822665#1 -392822665#0 392822666 392822664#3"/>
    </vehicle>
    <vehicle id="34" depart="34.00">
        <route edges="79262638 -79262642#0 -79262663#2 79396139#0 -79396109#2 906498862 79396163#0 79396163#1 79396145 758800288#1 758800287 442156760#2 442156759#1 442156759#2 442156759#3 442156759#4 442156760#0 -79867013#3 298563412#1 298563412 298563412#2 122726134#1 442156756 442156759#4 442156759#0 442156757 -84678509#2 442156982 758800288#1 906498861 79262635#0 -442062982#10 906498863#0 -906511012 -79396124#1"/>
    </vehicle>
    <vehicle id="35" depart="35.00">
        <route edges="82534343#4 110971337 110971342#0 122726139 122726140#0 122726125 79867013#0 79867013#1 298563412#1 298563412 298563412#2 122726134#1 442156756 442156759#4"/>
    </vehicle>
    <vehicle id="36" depart="36.00">
        <route edges="-79262633#0 110971340#0 392822664#1 392822664#2 392822664#3 392822664#4 392822664#5 79262672#0 79262672#1 906615576#0 79262633#1 906615580#0 -906615585 441755466 906615580#1 79262633#1 79262633#4 79262633#9 79262633#15 79262663#0 79396139#0 -79396109#2 906498862 79396163#0 79396163#1 79396145 758800288#1 758800287"/>
    </vehicle>
    <vehicle id="37" depart="37.00">
        <route edges="-392822665#5 -392822665#3 -392822665#1 -392822665#0 392822666 392822664#3 392822664#4 392822664#5 392822664#0 392822664#1 392822663 392822665#0 392822665#1 -587489968#1 -587489968#0 587489968#0 587489968#1 -392822665#1 -392822665#0 392822666 392822664#3 392822664#4 392822664#5 79262672#0 79262672#1 906615576#0 79262633#1 79262633#4 79262633#9 79262633#15 444635707 79262674 443232854"/>
    </vehicle>
    <vehicle id="38" depart="38.00">
        <route edges="79262655#2 -79262650 79262655#4 -79262655#1 -79262663#6 -79262663#2 -79262663#0 -79262633#16 -79262633#14 -79262633#8 -79262633#3 -79262633#0 110971340#0 392822664#1 392822663 392822665#0 392822665#1 -587489968#1 -587489968#0 587489968#0 587489968#1 -392822665#1 -392822665#0 392822666 392822664#3 392822664#4 392822664#5 79262672#0 79262672#1 906615576#0 79262633#1 79262633#4 79262633#9 79262633#15 79262663#0 79262663#1 79262663#3 79262655#0"/>
    </vehicle>
    <vehicle id="39" depart="39.00">
        <route edges="122726140#4 84678483 -110971342#2 110971334 110971330#1 82534343#6 -392822665#7 -392822665#6 -392822665#5 -392822665#3 -392822665#1 -392822665#0 392822666 392822664#3 392822664#4 392822664#5 392822664#0 392822664#1 392822663 392822665#0 392822665#1 -587489968#1 -587489968#0 587489968#0 587489968#1 -392822665#1 -392822665#0 392822666 392822664#3 392822664#4 392822664#5 79262672#0 79262672#1 906615576#0 79262633#1 79262633#4 79262633#9 79262633#15 79262663#0 79262663#1 79262663#3 79262655#0 79262655#2"/>
    </vehicle>
    <vehicle id="40" depart="40.00">
        <route edges="79396116#5 443232790#0 442062982#6 442062982#8 442062982#10 79396109#0 79396109#3 -79262663#0 -79262633#16 -79262633#14 -79262633#8 906615580#0 -906615585 441755466 906615580#1 -79262633#0 110971340#0 392822664#1 392822664#2 392822664#3 392822667 -147391538#5 -147391538#3 -147391538#2"/>
    </vehicle>
    <vehicle id="41" depart="41.00">
        <route edges="169424746 -147391538#2 -147391538#1 147391538#0 147391538#2 147391538#3 147391538#4 392822668 392822664#5 79262672#0 79262672#1 906615576#0 79262633#1 79262633#4 79262633#9 79262633#15 79262663#0 79396139#0 -79396109#2 906498862 79396163#0 79396163#1 79396145 758800288#1 758800287 442156760#2 442156759#1 442156759#2 442156759#3 442156759#4 442156760#0 -79867013#3 298563412#1 298563412 298563412#2 122726134#1"/>
    </vehicle>
    <vehicle id="42" depart="42.00">
        <route edges="-79262642#1 -79262642#0 -79262663#2 -79262663#0 -79262633#16 -79262633#14 -79262633#8 -79262633#3 -79262633#0 110971340#0 392822664#1 392822663 392822665#0 392822665#1 -587489968#1 -587489968#0 587489968#0 587489968#1 -392822665#1 -392822665#0 392822666 392822664#3 392822664#4 392822664#5 79262672#0 79262672#1 906615576#0 79262633#1 79262633#4 79262633#9 79262633#15 79262663#0 79396139#0 -79396109#2 -442062982#10"/>
    </vehicle>
    <vehicle id="43" depart="43.00">
        <route edges="-79262642#1 -79262642#0 -79262663#2 79396139#0 -79396109#2 906498862 79396163#0 79396163#1 79396145 758800288#1 758800287 442156760#2 442156759#1 442156759#2 442156759#3 442156759#4 442156760#0 -79867013#3 298563412#1 298563412 298563412#2 122726134#1 442156756 442156759#4 442156759#0 442156757 -84678509#2 442156982 758800288#1 906498861 79262635#0 -442062982#10 -442062982#9 -442062982#7 -443232790#1 -79396116#5 -79396116#4"/>
    </vehicle>
    <vehicle id="44" depart="44.00">
        <route edges="-79262655#2 -79262655#1 -79262663#6 -79262663#2 79396139#0 -79396109#2 906498862 79396163#0 79396163#1 79396145 758800288#1 758800287 442156760#2 442156759#1 442156759#2 442156759#3 442156759#4 442156760#0 -79867013#3 298563412#1 298563412 298563412#2 122726134#1 442156756 442156759#4 442156760#0 -79867013#3 -79867013#1 -79867013#0 84678475"/>
    </vehicle>
    <vehicle id="45" depart="45.00">
        <route edges="-292874238#2 -292874238#1 -292874238#0 -891016337#2 -79262663#6 -79262663#2 79396139#0 -79396109#2 906498862 79396163#0 79396163#1 79396145 758800288#1 758800287 442156760#2 442156759#1 442156759#2 442156759#3 442156759#4 442156760#0 -79867013#3 298563412#1 298563412 298563412#2 122726134#1 442156756 442156759#4 442156759#0 442156757 -84678509#2 442156982 758800288#1 906498861 79262635#0 -442062982#10 -442062982#9 -442062982#7 -442062982#4 -442062982#2 -442062982#1 442062984#1 82534335#4 -441754000#2 906511008 82534343#4 82534343#5 82534343#6 -392822665#7 -392822665#6 -392822665#5"/>
    </vehicle>
    <vehicle id="46" depart="46.00">
        <route edges="-442062982#1 442062984#1 82534335#4 -441754000#2 906511008 82534343#4 82534343#5 82534343#6 -392822665#7 -392822665#6 -392822665#5 -392822665#3 -392822665#1 -392822665#0 392822666 392822664#3 392822664#4 392822664#5 79262672#0 79262672#1 906615576#0 79262633#1 906615580#0 -906615585 441755466 906615580#1 -79262633#0 110971340#0 392822664#1 392822664#2 392822664#3 392822664#4 392822664#5"/>
    </vehicle>
    <vehicle id="47" depart="47.00">
        <route edges="-79262642#0 -79262663#2 -79262663#0 -79262633#16 -79262633#14 -79262633#8 906615580#0 -906615585 441755466 906615580#1 79262633#1 79262633#4 79262633#9 79262633#15 79262663#0 79262663#1"/>
    </vehicle>
    <vehicle id="48" depart="48.00">
        <route edges="-79262663#6 -79262663#2 -79262663#0 -79262633#16 -79262633#14 -79262633#8 -79262633#3 -79262633#0 110971340#0 392822664#1 392822663 392822665#0 392822665#1 -587489968#1 -587489968#0 587489968#0 587489968#1 -392822665#1 -392822665#0 392822666 392822664#3 392822667 -147391538#5 -147391538#3 -147391538#2 -147391538#1"/>
    </vehicle>
    <vehicle id="49" depart="49.00">
        <route edges="-392822665#6 -392822665#5 -392822665#3 -392822665#1 -392822665#0 392822666 392822664#3 392822664#4 392822664#5 79262672#0 79262672#1 906615576#0 79262633#1 906615580#0 -906615585 441755466 906615580#1 79262633#1 79262633#4 79262633#9 79262633#15 79262663#0 79262663#1 79262663#3 79262655#0 79262655#2"/>
    </vehicle>
    <vehicle id="50" depart="50.00">
        <route edges="906615580#0 -906615585 441755466 906615580#1 79262633#1 79262633#4 79262633#9 79262633#15 79262663#0 79396139#0 -79396109#2 906498862 79396163#0 79396163#1 79396145 758800288#1 758800287 442156760#2 442156759#1 442156759#2 442156759#3 442156759#4 442156760#0 -79867013#3 298563412#1 298563412 298563412#2 122726134#1 442156756 442156759#4 442156759#0 442156757 -84678509#2 442156982 758800288#1 906498861 79262635#0 79396109#0 79396109#3 -79262663#0 -79262633#16 -79262633#14 -79262633#8 -79262633#3 -79262633#0 110971340#0 392822664#1 392822664#2 392822664#3 392822667 -147391538#5 -147391538#3 169424742 62166875#1 -330224640 -62166872 62166872 330224640 62166847#0"/>
    </vehicle>
    <vehicle id="51" depart="51.00">
        <route edges="-292874238#0 -891016337#2 -79262663#6 -79262663#2 -79262663#0 -79262633#16 -79262633#14 -79262633#8 -79262633#3 -79262633#0 110971340#0 392822664#1 392822663 392822665#0 392822665#1 -587489968#1 -587489968#0 587489968#0 587489968#1 -392822665#1 -392822665#0 392822666 392822664#3 392822664#4 392822664#5 79262672#0 79262672#1 906615576#0 79262633#1 79262633#4 79262633#9 79262633#15 79262663#0 79396139#0 -79396109#2 906498862 79396163#0 79396163#1 79396145 758800288#1 758800287 442156760#2 442156759#1 442156759#2 442156758"/>
    </vehicle>
    <vehicle id="52" depart="52.00">
        <route edges="-906517535 -79262633#8 -79262633#3 -79262633#0 110971340#0 392822664#1 392822663 392822665#0 392822665#1 -587489968#1 -587489968#0 587489968#0 587489968#1 -392822665#1 -392822665#0 392822666 392822664#3 392822664#4 392822664#5 392822664#0 392822664#1 392822663 392822665#0 392822665#1 392822665#2 392822665#4 441702871 82534343#3 82534343#4 110971337 110971342#0 122726139 122726140#0 122726140#1 122726140#2 122726140#4"/>
    </vehicle>
    <vehicle id="53" depart="53.00">
        <route edges="298563412#1 298563412 298563412#2 122726134#1 442156756 442156759#4 442156759#0 442156757 -84678509#2 442156982 758800288#1 906498861 79262635#0 79396109#0 79396109#3 -79262663#0 -79262633#16 -79262633#14 -79262633#8 906615580#0 -906615585 441755466 906615580#1 79262633#1 79262633#4 79262633#9 79262633#15 79262663#0 79262663#1 79262663#3 79262655#0 -79262655#4"/>
    </vehicle>
    <vehicle id="54" depart="54.00">
        <route edges="442152905 84678483 -110971342#2 110971334 110971330#1 82534343#6 -392822665#7 -392822665#6 -392822665#5 -392822665#3 -392822665#1 -392822665#0 392822666 392822664#3 392822664#4 392822664#5 79262672#0 79262672#1 906615576#0 79262633#1 906615580#0 -906615585 441755466 906615580#1 -79262633#0 110971340#0 392822664#1 392822664#2 392822664#3 392822667 -147391538#5 -147391538#3"/>
    </vehicle>
    <vehicle id="55" depart="55.00">
        <route edges="906615580#0 -906615585 441755466 906615580#1 -79262633#0 110971340#0 392822664#1 392822663 392822665#0 392822665#1 -587489968#1 -587489968#0 587489968#0 587489968#1 -392822665#1 -392822665#0 392822666 392822664#3 392822664#4 392822664#5 392822664#0 392822664#1 392822663 392822665#0 392822665#1 392822665#2"/>
    </vehicle>
    <vehicle id="56" depart="56.00">
        <route edges="79396183#2 -79262674 -79262658 -79262633#16 -79262633#14 -79262633#8 -79262633#3 -79262633#0 110971340#0 392822664#1 392822663 392822665#0 392822665#1 -587489968#1 -587489968#0 587489968#0 587489968#1 -392822665#1 -392822665#0 392822666 392822664#3 392822667 -147391538#5 -147391538#3 -147391538#2"/>
    </vehicle>
    <vehicle id="57" depart="57.00">
        <route edges="79262672#0 79262672#1 906615576#0 79262633#1 906615580#0 -906615585 441755466 906615580#1 79262633#1 79262633#4 79262633#9 79262633#15 79262663#0 79396139#0 -79396109#2 906498862 442154682#0"/>
    </vehicle>
    <vehicle id="58" depart="58.00">
        <route edges="442062984#1 82534335#4 -441754000#2 906511008 82534343#4 82534343#5 82534343#6 -392822665#7 -392822665#6 -392822665#5 -392822665#3 -392822665#1 -392822665#0 392822666 392822664#3 392822664#4 392822664#5 79262672#0 79262672#1 906615576#0 79262633#1 906615580#0 -906615585 441755466 906615580#1 79262633#1 79262633#4 79262633#9 79262633#15 79262663#0 79396139#0 -79396109#2 906498862 79396163#0 79396163#1 79396145 758800288#1"/>
    </vehicle>
    <vehicle id="59" depart="59.00">
        <route edges="442156759#2 442156759#3 442156759#4 442156759#0 442156757 -84678509#2 442156982 758800288#1 906498861 79262635#0 79396109#0 79396109#3 -79262663#0 -79262633#16 -79262633#14 -79262633#8 906615580#0 -906615585 441755466 906615580#1 79262633#1 79262633#4 79262633#9 79262633#15 444635707 79262674"/>
    </vehicle>
    <vehicle id="60" depart="60.00">
        <route edges="79262633#1 79262633#4 79262633#9 79262633#15 79262663#0 79396139#0 -79396109#2 906498862 79396163#0 79396163#1 79396145 758800288#1 758800287 442156760#2 442156759#1 442156759#2 442156759#3 442156759#4 442156760#0 -79867013#3 298563412#1 298563412 298563412#2 122726134#1 442156756 442156759#4 442156759#0 442156757 -84678509#2 442156982 758800288#1 906498861 79262635#0 79396109#0 79396109#3 -79262663#0 -79262633#16 -79262633#14 -79262633#8 -79262633#3 -79262633#0 110971340#0 392822664#1 392822664#2 392822664#3 392822667 -147391538#5 -147391538#3 169424742"/>
    </vehicle>
    <vehicle id="61" depart="61.00">
        <route edges="392822663 392822665#0 79869125#0 -79869125#1 -392822665#0 392822666 392822664#3 392822664#4 392822664#5 79262672#0 79262672#1 906615576#0 79262633#1 906615580#0 -906615585 441755466 906615580#1 79262633#1 79262633#4"/>
    </vehicle>
    <vehicle id="62" depart="62.00">
        <route edges="122726134#0 122726134#1 442156756 442156759#4 442156760#0 -79867013#3 298563412#1 298563412 298563412#2 122726134#1 442156756 442156759#4 442156759#0 442156757 -84678509#2 442156982 758800288#1 906498861 79262635#0 79396109#0 -79396117#1"/>
    </vehicle>
    <vehicle id="63" depart="63.00">