<routes>
    <trip id="foe.0" depart="0" from="62166872" to="-906615585" color="green">
        <stop parkingArea="biblioteca" duration="1000.0"/>
    </trip>
</routes>