<routes xmlns:xsi="http://www.w3.org/2001/XMLSchema-instance"
        xsi:noNamespaceSchemaLocation="http://sumo.dlr.de/xsd/routes_file.xsd">
    <vehicle id="0" depart="0.00">
        <route edges="-79396110#2 82534335#2 82534335#3 82534335#4 -441754000#2 906511008 82534343#4 82534343#5 82534343#6 -392822665#7 -392822665#6 -392822665#5 -392822665#3 -392822665#1 -392822665#0 392822666 392822664#3 392822664#4 392822664#5 392822664#0 392822664#1 392822663 392822665#0 392822665#1 -587489968#1 -587489968#0 587489968#0 587489968#1 -392822665#1 -392822665#0 392822666 392822664#3 392822664#4 392822664#5 392822664#0 392822664#1 392822663 392822665#0 392822665#1 392822665#2 392822665#4 441702871 82534343#3 82534343#4 110971337 110971342#0 122726139 122726140#0 122726140#1 122726140#2 84678515"/>
    </vehicle>
    <vehicle id="1" depart="5.00">
        <route edges="906498863#0 -906511012 -79396124#1 -79262674 -79262658 -79262633#16 -79262633#14 -79262633#8 -79262633#3 -79262633#0 110971340#0 392822664#1 392822663 392822665#0 392822665#1 -587489968#1 -587489968#0 587489968#0 587489968#1 -392822665#1 -392822665#0 392822666 392822664#3 392822664#4 392822664#5 79262672#0 79262672#1 906615576#0 79262633#1 79262633#4 79262633#9 79262633#15 79262663#0 79396139#0 -79396109#2 -442062982#10 -442062982#9 -442062982#7 -443232790#1 -79396116#5 -79396116#4 -79396116#3 -79396110#2"/>
    </vehicle>
    <vehicle id="2" depart="10.00">
        <route edges="122726140#2 122726140#4 84678483 -110971342#2 110971334 110971330#1 82534343#6 -392822665#7 -392822665#6 -392822665#5 -392822665#3 -392822665#1 -392822665#0 392822666 392822664#3 392822664#4 392822664#5 79262672#0 79262672#1 906615576#0 79262633#1 906615580#0 -906615585 441755466 906615580#1 79262633#1 79262633#4 79262633#9 79262633#15 79262663#0 79262663#1 79262663#3 79262655#0 -79262655#4 -79262655#3"/>
    </vehicle>
    <vehicle id="3" depart="15.00">
        <route edges="758800288#1 758800287 442156760#2 442156759#1 442156759#2 442156759#3 442156759#4 442156760#0 -79867013#3 298563412#1 298563412 298563412#2 122726134#1 442156756 442156759#4 442156759#0 442156757 -84678509#2 442156982 758800288#1 906498861 79262635#0 79396109#0 79396109#3 -79262663#0 -79262633#16 -79262633#14 -79262633#8 -79262633#3 -79262633#0 110971340#0 392822664#1 392822664#2 392822664#3 392822667 -147391538#5 -147391538#3 169424742"/>
    </vehicle>
    <vehicle id="4" depart="20.00">
        <route edges="79396109#0 -79396117#1 79396117#0 -79396109#2 906498862 79396163#0 79396163#1 79396145 758800288#1 758800287 442156760#2 442156759#1 442156759#2 442156759#3 442156759#4 442156760#0 -79867013#3 298563412#1 298563412 298563412#2 122726134#1 442156756 442156759#4 442156759#0 442156757 -84678509#2 442156982 758800288#1 906498861 79262635#0 79396109#0 79396109#3 -79262663#0 -79262633#16 -79262633#14 -79262633#8 -79262633#3 -79262633#0 110971340#0 392822664#1 392822663 392822665#0 392822665#1 392822665#2 392822665#4 392822665#6"/>
    </vehicle>
    <vehicle id="5" depart="25.00">
        <route edges="-79262633#0 110971340#0 392822664#1 392822663 392822665#0 392822665#1 -587489968#1 -587489968#0 587489968#0 587489968#1 -392822665#1 -392822665#0 392822666 392822664#3 392822664#4 392822664#5 392822664#0 392822664#1 392822663 392822665#0 392822665#1 392822665#2 392822665#4 441702871 82534343#3 82534343#4 82534343#5"/>
    </vehicle>
    <vehicle id="6" depart="30.00">
        <route edges="79262650 -79262655#2 -79262655#1 -79262663#6 -79262663#2 -79262663#0 -79262633#16 -79262633#14 -79262633#8 906615580#0 -906615585 441755466 906615580#1 79262633#1 79262633#4 79262633#9 79262633#15 444635707 79262674 443232854"/>
    </vehicle>
    <vehicle id="7" depart="35.00">
        <route edges="-906517535 79262633#9 79262633#15 79262663#0 79396139#0 -79396109#2 906498862 79396163#0 79396163#1 79396145 758800288#1 758800287 442156760#2 442156759#1 442156759#2 442156759#3 442156759#4 442156760#0 -79867013#3 298563412#1 298563412 298563412#2 122726134#1 442156756 442156759#4 442156759#0 442156757 -84678509#2 442156982 758800288#1 906498861 79262635#0 -442062982#10 -442062982#9 -442062982#7 -442062982#4"/>
    </vehicle>
    <vehicle id="8" depart="40.00">
        <route edges="79262650 -79262655#2 -79262655#1 -79262663#6 -79262663#2 -79262663#0 -79262633#16 -79262633#14 -79262633#8 906615580#0 -906615585 441755466 906615580#1 -79262633#0 110971340#0 392822664#1 392822663 392822665#0 392822665#1 392822665#2 392822665#4"/>
    </vehicle>
    <vehicle id="9" depart="45.00">
        <route edges="442062982#2 442062982#3 442062982#6 442062982#8 442062982#10 906498862 79396163#0 79396163#1 79396145 758800288#1 758800287 442156760#2 442156759#1 442156759#2 442156759#3 442156759#4 442156760#0 -79867013#3 298563412#1 298563412 298563412#2 122726134#1 442156756 442156759#4 442156759#0 442156757 -84678509#2 442156982 758800288#1 906498861 79262635#0 -442062982#10 -442062982#9 -442062982#7 -442062982#4 -442062982#2 -442062982#1"/>
    </vehicle>
    <vehicle id="10" depart="50.00">
        <route edges="-79262674 -79262658 -79262633#16 -79262633#14 -79262633#8 -79262633#3 -79262633#0 110971340#0 392822664#1 392822663 392822665#0 392822665#1 -587489968#1 -587489968#0 587489968#0 587489968#1 -392822665#1 -392822665#0 392822666 392822664#3 392822664#4 392822664#5 79262672#0 79262672#1 906615576#0 79262633#1 79262633#4 79262633#9 79262633#15 444635707 79262674 79396124#0"/>
    </vehicle>
    <vehicle id="11" depart="55.00">
        <route edges="892584574#1 -891016337#2 -79262663#6 -79262663#2 -79262663#0 -79262633#16 -79262633#14 -79262633#8 906615580#0 -906615585 441755466 906615580#1 79262633#1 79262633#4 79262633#9 79262633#15 79262663#0 79396139#0 -79396109#2 -442062982#10 -442062982#9 -442062982#7 -442062982#4 -442062982#2 -442062982#1 442062984#1 82534335#4 82534335#1 79396110#0"/>
    </vehicle>
    <vehicle id="12" depart="60.00">
        <route edges="122726125 79867013#0 122726116 -122726137 -79867013#0 84678475 122726140#2 122726140#4 84678483 -110971342#2 110971334 110971330#1 82534343#6 -392822665#7 -392822665#6 -392822665#5 -392822665#3 -392822665#1 -392822665#0 392822666 392822664#3 392822664#4 392822664#5 392822664#0 392822664#1 392822663 392822665#0 392822665#1 -587489968#1 -587489968#0 587489968#0 587489968#1 -392822665#1 -392822665#0 392822666 392822664#3 392822664#4 392822664#5 79262672#0 79262672#1 906615576#0 79262633#1 79262633#4 79262633#9 79262633#15 79262663#0 79262663#1 79262663#3 891016337#0 292874238#0 -79264372#1 79264326#0 79264326#1"/>
    </vehicle>
    <vehicle id="13" depart="65.00">
        <route edges="122726134#1 442156756 442156759#4 442156759#0 442156757 -84678509#2 442156982 758800288#1 906498861 79262635#0 79396109#0 79396109#3 -79262663#0 -79262633#16 -79262633#14 -79262633#8 -79262633#3 -79262633#0 110971340#0 392822664#1 392822663 392822665#0 392822665#1 -587489968#1 -587489968#0 587489968#0 587489968#1 -392822665#1 -392822665#0 392822666 392822664#3 392822667 -147391538#5 -147391538#3 169424742 62166875#1 -330224640"/>
    </vehicle>
    <vehicle id="14" depart="70.00">
        <route edges="-79262655#1 -79262663#6 -79262663#2 79396139#0 -79396109#2 906498862 79396163#0 79396163#1 79396145 758800288#1 758800287 442156760#2 442156759#1 442156759#2 442156759#3 442156759#4 442156760#0 -79867013#3 298563412#1 298563412 298563412#2 122726134#1 442156756 442156759#4 442156759#0 442156757 -84678509#2 442156982 758800288#1 906498861 79262635#0 79396109#0 79396109#3 -79262663#0 -79262633#16 -79262633#14 -79262633#8 -79262633#3 -79262633#0 110971340#0 392822664#1 392822664#2 392822664#3 392822667 -147391538#5 -147391538#3 -147391538#2 -147391538#1 147391538#0 62166875#0"/>
    </vehicle>
    <vehicle id="15" depart="75.00">
        <route edges="442154682#1 79396163#1 79396145 758800288#1 906498861 79262635#0 79396109#0 79396109#3 -79262663#0 -79262633#16 -79262633#14 -79262633#8 -79262633#3 -79262633#0 110971340#0 392822664#1 392822663 392822665#0 392822665#1 -587489968#1 -587489968#0 587489968#0 587489968#1 -392822665#1 -392822665#0 392822666 392822664#3 392822664#4 392822664#5 79262672#0 79262672#1 906615576#0 79262633#1 79262633#4 79262633#9 79262633#15 79262663#0 79396139#0 -79396109#2 -442062982#10 -442062982#9 -442062982#7 -442062982#4 -79396093"/>
    </vehicle>
    <vehicle id="16" depart="80.00">
        <route edges="292874238#2 292874238#3 906615576#0 79262633#1 79262633#4 79262633#9 79262633#15 79262663#0 79396139#0 -79396109#2 906498862 79396163#0 79396163#1 79396145 758800288#1 758800287 442156760#2 442156759#1 442156759#2 442156759#3 442156759#4 442156760#0 -79867013#3 298563412#1 298563412 298563412#2 122726134#1 442156756 442156759#4 442156759#0 442156757 -84678509#2 442156982 758800288#1 906498861 79262635#0 79396109#0 79396109#3 79262663#1 79262663#3 891016337#0 292874238#0"/>
    </vehicle>
    <vehicle id="17" depart="85.00">
        <route edges="906615580#0 -906615585 441755466 906615580#1 -79262633#0 110971340#0 392822664#1 392822663 392822665#0 392822665#1"/>
    </vehicle>
    <vehicle id="18" depart="90.00">
        <route edges="79396181 892584574#1 -891016337#2 -79262663#6 -79262663#2 -79262663#0 -79262633#16 -79262633#14 -79262633#8 906615580#0 -906615585 441755466 906615580#1 79262633#1 79262633#4 79262633#9 79262633#15 79262663#0"/>
    </vehicle>
    <vehicle id="19" depart="95.00">
        <route edges="906498861 79262635#0 79396109#0 79396109#3 -79262663#0 -79262633#16 -79262633#14 -79262633#8 906615580#0 -906615585 441755466 906615580#1 79262633#1 79262633#4 79262633#9 79262633#15 79262663#0 79396139#0 -79396109#2 -442062982#10 -442062982#9 -442062982#7 -442062982#4 -442062982#2 -442062982#1 442062984#1 82534335#4 82534335#1 79396110#0 79396116#0"/>
    </vehicle>
    <vehicle id="20" depart="100.00">
        <route edges="442062982#10 79396109#0 79396109#3 -79262663#0 -79262633#16 -79262633#14 -79262633#8 906615580#0 -906615585 441755466 906615580#1 79262633#1 79262633#4 79262633#9 79262633#15 79262663#0 79396139#0 -79396109#2 906498862"/>
    </vehicle>
    <vehicle id="21" depart="105.00">
        <route edges="-79262639 -292874238#1 -292874238#0 -891016337#2 -79262663#6 -79262663#2 79396139#0 -79396109#2 906498862 79396163#0 79396163#1 79396145 758800288#1 758800287 442156760#2 442156759#1 442156759#2 442156759#3 442156759#4 442156760#0 -79867013#3 298563412#1 298563412 298563412#2 122726134#1 442156756"/>
    </vehicle>
    <vehicle id="22" depart="110.00">
        <route edges="330224640 62166847#0 62166847#1 147391538#4 392822668 392822664#5 79262672#0 79262672#1 906615576#0 79262633#1 906615580#0 -906615585 441755466 906615580#1 79262633#1 79262633#4 79262633#9 79262633#15 79262663#0 79396139#0 -79396109#2 -442062982#10 906498863#0 -906511012"/>
    </vehicle>
    <vehicle id="23" depart="115.00">
        <route edges="79262655#3 79262655#4 -79262655#1 -79262663#6 -79262663#2 -79262663#0 -79262633#16 -79262633#14 -79262633#8 906615580#0 -906615585 441755466 906615580#1 -79262633#0 110971340#0 392822664#1 392822663 392822665#0 392822665#1 392822665#2"/>
    </vehicle>
    <vehicle id="24" depart="120.00">
        <route edges="-79396155#1 -79396116#4 -79396116#3 -79396110#2 82534335#2 82534335#3 82534335#4 -441754000#2 906511008 82534343#4 82534343#5 82534343#6 -392822665#7 -392822665#6 -392822665#5 -392822665#3 -392822665#1 -392822665#0 392822666 392822664#3 392822664#4 392822664#5 392822664#0 392822664#1 392822663 392822665#0 392822665#1 -587489968#1 -587489968#0 587489968#0 587489968#1 -392822665#1 -392822665#0 392822666 392822664#3 392822664#4 392822664#5 392822664#0 392822664#1 392822663 392822665#0 392822665#1 392822665#2 392822665#4 392822665#6 392822665#7 82534343#2"/>
    </vehicle>
    <vehicle id="25" depart="125.00">
        <route edges="122726125 79867013#0 79867013#1 298563412#1 298563412 298563412#2 122726134#1 442156756 442156759#4 442156759#0 442156757 -84678509#2 442156982 758800288#1 906498861 79262635#0 -442062982#10 -442062982#9 -442062982#7 -442062982#4 -442062982#2 -442062982#1 442062984#1 82534335#4 -441754000#2 906511008 82534343#4 82534343#5 82534343#6 -392822665#7 -392822665#6 -392822665#5 -392822665#3 -392822665#1 -392822665#0 392822666"/>
    </vehicle>
    <vehicle id="26" depart="130.00">
        <route edges="392822665#0 392822665#1 -587489968#1 -587489968#0 587489968#0 587489968#1 -392822665#1 -392822665#0 392822666 392822664#3 392822664#4 392822664#5 79262672#0 79262672#1 906615576#0 79262633#1 79262633#4 79262633#9 79262633#15 79262663#0 79396139#0 -79396109#2 906498862 79396163#0 79396163#1 79396145 758800288#1"/>
    </vehicle>
    <vehicle id="27" depart="135.00">
        <route edges="392822665#4 441702871 82534343#3 82534343#4 110971337 110971342#0 122726139 122726140#0 122726125 79867013#0 79867013#1 298563412#1 298563412 298563412#2 122726134#1 442156756 442156759#4 442156759#0 442156757 -84678509#2 442156982 758800288#1 906498861 79262635#0 79396109#0 79396109#3 -79262663#0 -79262633#16 -79262633#14 -79262633#8 -79262633#3 -79262633#0 110971340#0 392822664#1 392822664#2 392822664#3 392822667 -147391538#5 -147391538#3"/>
    </vehicle>
    <vehicle id="28" depart="140.00">
        <route edges="587489968#1 -392822665#1 -392822665#0 392822666 392822664#3 392822664#4 392822664#5 79262672#0 79262672#1 906615576#0 79262633#1 906615580#0 -906615585 441755466 906615580#1 79262633#1 79262633#4 79262633#9 79262633#15 79262663#0 79396139#0 -79396109#2 906498862"/>
    </vehicle>
    <vehicle id="29" depart="145.00">
        <route edges="79867013#2 442156760#2 442156757 -84678509#2 442156982 758800288#1 906498861 79262635#0 79396109#0 79396109#3 -79262663#0 -79262633#16 -79262633#14 -79262633#8 -79262633#3 -79262633#0 110971340#0 392822664#1 392822663 392822665#0 392822665#1 -587489968#1 -587489968#0 587489968#0 587489968#1 -392822665#1 -392822665#0 392822666 392822664#3 392822664#4 392822664#5 79262672#0 79262672#1 906615576#0 79262633#1 79262633#4 79262633#9 79262633#15 444635707 79262674 79396124#0 906511012"/>
    </vehicle>
    <vehicle id="30" depart="150.00">
        <route edges="-79396147#1 442154682#1 79396163#1 79396145 758800288#1 758800287 442156760#2 442156759#1 442156759#2 442156759#3 442156759#4 442156760#0 -79867013#3 298563412#1 298563412 298563412#2 122726134#1 442156756 442156759#4 442156759#0 442156757 -84678509#2 442156982 758800288#1 906498861 79262635#0 -442062982#10 -442062982#9 -442062982#7 -442062982#4 -442062982#2 -442062982#1 442062984#1 82534335#4 -441754000#2 906511008 82534343#4"/>
    </vehicle>
    <vehicle id="31" depart="155.00">
        <route edges="79396163#1 79396145 758800288#1 906498861 79262635#0 79396109#0 79396109#3 -79262663#0 -79262633#16 -79262633#14 -79262633#8 906615580#0 -906615585 441755466 906615580#1 -79262633#0 110971340#0 392822664#1 392822664#2 392822664#3 392822667 -147391538#5"/>
    </vehicle>
    <vehicle id="32" depart="160.00">
        <route edges="906498862 79396163#0 79396163#1 79396145 758800288#1 906498861 79262635#0 79396109#0 79396109#3 -79262663#0 -79262633#16 -79262633#14 -79262633#8 906615580#0 -906615585 441755466 906615580#1 79262633#1 79262633#4 79262633#9 79262633#15 79262663#0 79396139#0 -79396109#2 906498862 79396163#0 79396163#1 79396145 758800288#1 906498861"/>
    </vehicle>
    <vehicle id="33" depart="165.00">
        <route edges="79396116#5 443232790#0 442062982#6 442062982#8 442062982#10 906498862 79396163#0 79396163#1 79396145 758800288#1 758800287 442156760#2 442156759#1 442156759#2 442156759#3 442156759#4 442156760#0 -79867013#3 298563412#1 298563412 298563412#2 122726134#1 442156756 442156759#4 442156759#0 442156757 -84678509#2 442156982 758800288#1 906498861 79262635#0 -442062982#10 -442062982#9 -442062982#7 -442062982#4 -442062982#2 -442062982#1 442062984#1 82534335#4 82534335#1 79396110#0 79396116#0"/>
    </vehicle>
    <vehicle id="34" depart="170.00">
        <route edges="-392822665#5 -392822665#3 -392822665#1 -392822665#0 392822666 392822664#3 392822664#4 392822664#5 392822664#0 392822664#1 392822663 392822665#0 392822665#1 -587489968#1 -587489968#0 587489968#0 587489968#1 -392822665#1 -392822665#0 392822666 392822664#3 392822664#4 392822664#5 79262672#0 79262672#1 906615576#0 79262633#1 79262633#4 79262633#9 79262633#15 79262663#0 79262663#1 79262663#3 891016337#0 -892584574#1 -892584574#0"/>
    </vehicle>
    <vehicle id="35" depart="175.00">
        <route edges="79396163#1 79396145 758800288#1 906498861 79262635#0 79396109#0 79396109#3 -79262663#0 -79262633#16 -79262633#14 -79262633#8 -79262633#3 -79262633#0 110971340#0 392822664#1 392822663 392822665#0 392822665#1 -587489968#1 -587489968#0 587489968#0 587489968#1 -392822665#1 -392822665#0 392822666 392822664#3 392822664#4 392822664#5 79262672#0 79262672#1 906615576#0 79262633#1 79262633#4 79262633#9 79262633#15 79262663#0 79262663#1 79262663#3 79262655#0 79262655#2"/>
    </vehicle>
    <vehicle id="36" depart="180.00">
        <route edges="-79262633#14 -79262633#8 906615580#0 -906615585 441755466 906615580#1 -79262633#0 110971340#0 392822664#1 392822664#2 392822664#3 392822667 -147391538#5 -147391538#3 169424742 62166875#1 -330224640"/>
    </vehicle>
    <vehicle id="37" depart="185.00">
        <route edges="82534335#3 82534335#4 -441754000#2 906511008 82534343#4 110971337 110971342#0 122726139 122726140#0 122726125 79867013#0 79867013#1 298563412#1 298563412 298563412#2 122726134#1 442156756 442156759#4 442156759#0 442156757"/>
    </vehicle>
    <vehicle id="38" depart="190.00">
        <route edges="892584574#1 -891016337#2 -79262663#6 -79262663#2 -79262663#0 -79262633#16 -79262633#14 -79262633#8 906615580#0 -906615585 441755466 906615580#1 -79262633#0 110971340#0 392822664#1 392822663 392822665#0 392822665#1 392822665#2 392822665#4 441702871 82534343#3 82534343#4 110971337 110971342#0 122726139 122726140#0 122726140#1 122726140#2 84678515 442152904 -442152904 442152905"/>
    </vehicle>
    <vehicle id="39" depart="195.00">
        <route edges="79396116#5 443232790#0 442062982#6 442062982#8 442062982#10 79396109#0 79396109#3 -79262663#0 -79262633#16 -79262633#14 -79262633#8 -79262633#3 -79262633#0 110971340#0 392822664#1 392822663 392822665#0 392822665#1 -587489968#1 -587489968#0 587489968#0 587489968#1 -392822665#1 -392822665#0 392822666 392822664#3 392822664#4 392822664#5 79262672#0 79262672#1 906615576#0 79262633#1 79262633#4 79262633#9 79262633#15 79262663#0 79396139#0 -79396109#2 906498862 79396163#0 79396163#1 79396145 758800288#1 758800287 442156760#2 442156759#1 442156759#2"/>
    </vehicle>
    <vehicle id="40" depart="200.00">
        <route edges="79396181 892584574#1 -891016337#2 -79262663#6 -79262663#2 -79262663#0 -79262633#16 -79262633#14 -79262633#8 -79262633#3 -79262633#0 110971340#0 392822664#1 392822663 392822665#0 392822665#1 -587489968#1 -587489968#0 587489968#0 587489968#1 -392822665#1 -392822665#0 392822666"/>
    </vehicle>
    <vehicle id="41" depart="205.00">
        <route edges="443232790#0 442062982#6 442062982#8 442062982#10 906498862 79396163#0 79396163#1 79396145 758800288#1 758800287 442156760#2 442156759#1 442156759#2 442156759#3 442156759#4 442156760#0 -79867013#3 298563412#1 298563412 298563412#2 122726134#1 442156756 442156759#4 442156759#0 442156757 -84678509#2 442156982 758800288#1 906498861 79262635#0 79396109#0 79396109#3 -79262663#0 -79262633#16 -79262633#14 -79262633#8 -79262633#3 -79262633#0 110971340#0 392822664#1 392822664#2 392822664#3 392822667 -147391538#5"/>
    </vehicle>
    <vehicle id="42" depart="210.00">
        <route edges="-79262642#0 -79262663#2 79396139#0 -79396109#2 906498862 79396163#0 79396163#1 79396145 758800288#1 758800287 442156760#2 442156759#1 442156759#2 442156759#3 442156759#4 442156760#0 -79867013#3 298563412#1 298563412 298563412#2 122726134#1 442156756 442156759#4 442156759#0 442156757 -84678509#2 442156982 758800288#1 906498861 79262635#0 -442062982#10 -442062982#9 -442062982#7 -443232790#1"/>
    </vehicle>
    <vehicle id="43" depart="215.00">
        <route edges="-392822665#7 -392822665#6 -392822665#5 -392822665#3 -392822665#1 -392822665#0 392822666 392822664#3 392822664#4 392822664#5 392822664#0 392822664#1 392822663 392822665#0 392822665#1 -587489968#1 -587489968#0 587489968#0 587489968#1 -392822665#1 -392822665#0 392822666 392822664#3 392822664#4 392822664#5 392822664#0 392822664#1 392822663 392822665#0 392822665#1 392822665#2 392822665#4"/>
    </vehicle>
    <vehicle id="44" depart="220.00">
        <route edges="392822664#1 392822663 392822665#0 392822665#1 -587489968#1 -587489968#0 587489968#0 587489968#1 -392822665#1 -392822665#0 392822666 392822664#3 392822664#4 392822664#5 79262672#0 79262672#1 906615576#0 79262633#1 79262633#4 79262633#9 79262633#15 79262663#0 79262663#1 79262663#3 79262655#0 -79262655#4 79262650"/>
    </vehicle>
    <vehicle id="45" depart="225.00">
        <route edges="84678483 -110971342#2 110971334 110971330#1 82534343#6 -392822665#7 -392822665#6 -392822665#5 -392822665#3 -392822665#1 -392822665#0 392822666 392822664#3 392822664#4 392822664#5 392822664#0 392822664#1 392822663 392822665#0 392822665#1 -587489968#1 -587489968#0 587489968#0 587489968#1 -392822665#1 -392822665#0 392822666 392822664#3 392822664#4 392822664#5 79262672#0 79262672#1"/>
    </vehicle>
    <vehicle id="46" depart="230.00">
        <route edges="62166847#1 147391538#4 392822668 392822664#5 79262672#0 79262672#1 906615576#0 79262633#1 79262633#4 79262633#9 79262633#15 79262663#0 79396139#0 -79396109#2 906498862 79396163#0 79396163#1 79396145 758800288#1 758800287 442156760#2 442156759#1 442156759#2 442156759#3 442156759#4 442156760#0 -79867013#3 298563412#1 298563412 298563412#2 122726134#1 442156756 442156759#4 442156759#0 442156757 -84678509#2 442156982 758800288#1 906498861"/>
    </vehicle>
    <vehicle id="47" depart="235.00">
        <route edges="906615576#0 79262633#1 79262633#4 906517535 -906517535 -79262633#8 -79262633#3 -79262633#0 110971340#0 392822664#1 392822663 392822665#0 392822665#1 -587489968#1 -587489968#0 587489968#0 587489968#1 -392822665#1 -392822665#0 392822666 392822664#3 392822664#4 392822664#5 79262672#0 79262672#1 906615576#0 79262633#1 79262633#4 79262633#9 79262633#15 79262663#0 79396139#0 -79396109#2 -442062982#10 -442062982#9 -442062982#7 -442062982#4 -442062982#2 -442062982#1 442062984#1 82534335#4 82534335#1 79396110#0"/>
    </vehicle>
    <vehicle id="48" depart="240.00">
        <route edges="758800287 442156760#2 442156759#1 442156759#2 442156759#3 442156759#4 442156760#0 -79867013#3 298563412#1 298563412 298563412#2 122726134#1 442156756 442156759#4 442156759#0 442156757 -84678509#2 442156982 758800288#1 906498861 79262635#0 79396109#0 79396109#3 -79262663#0 -79262633#16 -79262633#14 -79262633#8 -79262633#3 -79262633#0 110971340#0 392822664#1 392822664#2 392822664#3 392822667 -147391538#5 -147391538#3 -147391538#2 -147391538#1"/>
    </vehicle>
    <vehicle id="49" depart="245.00">
        <route edges="392822668 392822664#5 79262672#0 79262672#1 906615576#0 79262633#1 79262633#4 79262633#9 79262633#15 79262663#0 79396139#0 -79396109#2 906498862 79396163#0 79396163#1 79396145 758800288#1 758800287 442156760#2 442156759#1 442156759#2 442156759#3 442156759#4 442156760#0 -79867013#3 298563412#1 298563412 298563412#2 122726134#1 442156756 442156759#4 442156759#0 442156757 -84678509#2 442156982 758800288#1 906498861 79262635#0 79396109#0 79396109#3 79262663#1 79262663#3 79262655#0 -79262655#4"/>
    </vehicle>
    <vehicle id="50" depart="250.00">
        <route edges="82534335#4 -441754000#2 906511008 82534343#4 110971337 110971342#0 122726139 122726140#0 122726125 79867013#0 79867013#1 298563412#1 298563412 298563412#2 122726134#1 442156756 442156759#4 442156759#0 442156757 -84678509#2 442156982 758800288#1 906498861 79262635#0 79396109#0 79396109#3 -79262663#0 -79262633#16 79869142#0"/>
    </vehicle>
    <vehicle id="51" depart="255.00">
        <route edges="-443232790#1 -79396116#5 -79396116#4 -79396116#3 -79396110#2 82534335#2 82534335#3 82534335#4 -441754000#2 906511008 82534343#4 82534343#5 82534343#6 -392822665#7 -392822665#6 -392822665#5 -392822665#3 -392822665#1 -392822665#0 392822666 392822664#3 392822664#4 392822664#5 392822664#0 392822664#1 392822663 392822665#0 392822665#1 -587489968#1 -587489968#0 587489968#0 587489968#1 -392822665#1 -392822665#0 392822666 392822664#3 392822664#4 392822664#5 79262672#0 79262672#1 906615576#0 79262633#1 79262633#4 79262633#9 79262633#15 444635707 79262674"/>
    </vehicle>
    <vehicle id="52" depart="260.00">
        <route edges="122726140#4 84678483 -110971342#2 110971334 110971330#1 82534343#6 -392822665#7 -392822665#6 -392822665#5 -392822665#3 -392822665#1 -392822665#0 392822666 392822664#3 392822664#4 392822664#5 392822664#0 392822664#1 392822663 392822665#0 392822665#1 -587489968#1 -587489968#0 587489968#0 587489968#1 -392822665#1 -392822665#0 392822666 392822664#3 392822664#4 392822664#5 392822664#0 392822664#1 392822663 392822665#0 392822665#1 392822665#2 392822665#4 441702871 82534343#3 82534343#4 82534343#5 82534343#6"/>
    </vehicle>
    <vehicle id="53" depart="265.00">
        <route edges="79262650 -79262655#2 -79262655#1 -79262663#6 -79262663#2 79396139#0 -79396109#2 906498862 79396163#0 79396163#1 79396145 758800288#1 758800287 442156760#2 442156759#1 442156759#2 442156759#3 442156759#4 442156760#0 -79867013#3 298563412#1 298563412 298563412#2 122726134#1 442156756 442156759#4 442156759#0 442156757 -84678509#2 442156982 758800288#1 906498861 79262635#0 79396109#0 79396109#3 79262663#1 79262663#3 79262655#0 79262655#2 -79262650"/>
    </vehicle>
    <vehicle id="54" depart="270.00">
        <route edges="292874238#3 906615576#0 79262633#1 79262633#4 79262633#9 79262633#15 79262663#0 79396139#0 -79396109#2 906498862 79396163#0 79396163#1 79396145 758800288#1 758800287 442156760#2 442156759#1 442156759#2 442156759#3 442156759#4 442156760#0 -79867013#3 298563412#1 298563412 298563412#2 122726134#1 442156756 442156759#4 442156759#0 442156757 -84678509#2 442156982 758800288#1 906498861 79262635#0 -442062982#10 -442062982#9 -442062982#7 -442062982#4 -442062982#2 -442062982#1 442062984#1 82534335#4 -441754000#2 906511008 82534343#4 82534343#5 82534343#6 -392822665#7 -392822665#6 -392822665#5 -392822665#3"/>
    </vehicle>
    <vehicle id="55" depart="275.00">
        <route edges="-79262655#1 -79262663#6 -79262663#2 79396139#0 -79396109#2 906498862 79396163#0 79396163#1 79396145 758800288#1 758800287 442156760#2 442156759#1 442156759#2 442156759#3 442156759#4 442156760#0 -79867013#3 298563412#1 298563412 298563412#2 122726134#1 442156756 442156759#4 442156759#0 442156757 -84678509#2 442156982 758800288#1 906498861 79262635#0 79396109#0 79396109#3 -79262663#0 -79262633#16 -79262633#14 -79262633#8 -79262633#3 -79262633#0 110971340#0 392822664#1 392822664#2 392822664#3 392822667 -147391538#5 -147391538#3 -147391538#2 -147391538#1 147391538#0 147391538#2 147391538#3 147391538#4 392822668"/>
    </vehicle>
    <vehicle id="56" depart="280.00">
        <route edges="-79396110#5 -79396110#2 82534335#2 442062984#0 442062982#0 442062982#2 442062982#3 442062982#6 442062982#8 442062982#10 79396109#0 79396109#3 -79262663#0 -79262633#16 -79262633#14 -79262633#8 906615580#0 -906615585 441755466 906615580#1 79262633#1 79262633#4 79262633#9 79262633#15 79262663#0 79262663#1"/>
    </vehicle>
    <vehicle id="57" depart="285.00">
        <route edges="906615576#0 79262633#1 79262633#4 906517535 -906517535 -79262633#8 -79262633#3 -79262633#0 110971340#0 392822664#1 392822663 392822665#0 392822665#1 -587489968#1 -587489968#0 587489968#0 587489968#1 -392822665#1 -392822665#0 392822666 392822664#3 392822664#4 392822664#5 79262672#0 79262672#1 -292874238#4 -292874238#2 79262664#0"/>
    </vehicle>
    <vehicle id="58" depart="290.00">
        <route edges="-79396109#2 906498862 79396163#0 79396163#1 79396145 758800288#1 906498861 79262635#0 79396109#0 79396109#3 -79262663#0 -79262633#16 -79262633#14 -79262633#8 906615580#0 -906615585 441755466 906615580#1 79262633#1 79262633#4 79262633#9 79262633#15 79262663#0 79396139#0 -79396109#2 -442062982#10 -442062982#9 -442062982#7"/>
    </vehicle>
    <vehicle id="59" depart="295.00">
        <route edges="84678483 -110971342#2 110971334 110971330#1 82534343#6 -392822665#7 -392822665#6 -392822665#5 -392822665#3 -392822665#1 -392822665#0 392822666 392822664#3 392822664#4 392822664#5 392822664#0 392822664#1 392822663 392822665#0 392822665#1 -587489968#1 -587489968#0 587489968#0 587489968#1 -392822665#1 -392822665#0 392822666 392822664#3 392822664#4 392822664#5 79262672#0 79262672#1 906615576#0 79262633#1 79262633#4 79262633#9"/>
    </vehicle>
    <vehicle id="60" depart="300.00">
        <route edges="-79262655#1 -79262663#6 -79262663#2 79396139#0 -79396109#2 906498862 79396163#0 79396163#1 79396145 758800288#1 758800287 442156760#2 442156759#1 442156759#2 442156759#3 442156759#4 442156760#0 -79867013#3 298563412#1 298563412 298563412#2 122726134#1 442156756 442156759#4 442156759#0 442156757 -84678509#2 442156982 758800288#1 906498861 79262635#0 -442062982#10 -442062982#9 -442062982#7 -443232790#1"/>
    </vehicle>
    <vehicle id="61" depart="305.00">
        <route edges="122726134#0 122726134#1 442156756 442156759#4 442156760#0 -79867013#3 298563412#1 298563412 298563412#2 122726134#1 442156756 442156759#4 442156759#0 442156757 -84678509#2 442156982 758800288#1 906498861 79262635#0 79396109#0 79396109#3 -79262663#0 444635707 79262674"/>
    </vehicle>
    <vehicle id="62" depart="310.00">
        <route edges="442156759#0 442156757 -84678509#2 442156982 758800288#1 906498861 79262635#0 79396109#0 79396109#3 -79262663#0 -79262633#16 -79262633#14 -79262633#8 906615580#0 -906615585 441755466 906615580#1 -79262633#0 110971340#0 392822664#1 392822663 392822665#0 392822665#1 392822665#2 392822665#4 441702871 82534343#3"/>
    </vehicle>
    <vehicle id="63" depart="315.00">