<?xml version="1.0" encoding="UTF-8"?>

<!-- generated on 01/15/21 13:44:12 by Eclipse SUMO GUI Version 1.8.0
-->

<configuration xmlns:xsi="http://www.w3.org/2001/XMLSchema-instance"
               xsi:noNamespaceSchemaLocation="http://sumo.dlr.de/xsd/sumoConfiguration.xsd">
    <input>
        <net-file value="net.net.xml"/>
        <route-files value="routes.rou.xml"/>
    </input>

    <gui_only>
        <gui-settings-file value="sett.view.xml"/>
    </gui_only>

</configuration>
