<?xml version="1.0" encoding="UTF-8"?>

<!-- generated on 02/08/21 09:59:11 by Eclipse SUMO duarouter Version 1.8.0
<configuration xmlns:xsi="http://www.w3.org/2001/XMLSchema-instance" xsi:noNamespaceSchemaLocation="http://sumo.dlr.de/xsd/duarouterConfiguration.xsd">

    <input>
        <net-file value="Napoli.net.xml"/>
        <route-files value="trips.trips.xml"/>
    </input>

    <output>
        <output-file value="Prova.rou.xml"/>
        <alternatives-output value="Prova.rou.alt.xml"/>
    </output>

    <time>
        <begin value="0"/>
        <end value="5000"/>
    </time>

    <report>
        <no-warnings value="true"/>
        <ignore-errors value="true"/>
        <no-step-log value="true"/>
    </report>

</configuration>
-->

<routes xmlns:xsi="http://www.w3.org/2001/XMLSchema-instance" xsi:noNamespaceSchemaLocation="http://sumo.dlr.de/xsd/routes_file.xsd">
	<!-- FLussi di traffico -->
	<flow id="flusso1"  begin="0.00" end="5000.00" number="300" from="Via_Foria_0" to="Calata_Capodichino" color="1,0,0"/>
	<flow id="flusso2"  begin="0.00" end="5000.00" number="265" from="Via_Foria_0" to="Via_Miano" color="1,0,0"/>
	<flow id="flusso3"  begin="0.00" end="5000.00" number="255" from="Via_Foria_0" to="Via_Nuova_Poggioreale" color="1,0,0"/>
	<flow id="flusso4"  begin="0.00" end="5000.00" number="306" from="Via_Foria_0" to="-Via_Taddeo_Sessa" color="1,0,0"/>
	<flow id="flusso5"  begin="0.00" end="5000.00" number="600" from="Via_Taddeo_Sessa" to="Via_Foria_00" color="1,0,0"/>
    <flow id="flusso6"  begin="0.00" end="5000.00" number="260" from="Via_Taddeo_Sessa" to="Calata_Capodichino" color="1,0,0"/>
	<flow id="flusso7"  begin="0.00" end="5000.00" number="260" from="Corso_Arnaldo_Lucci" to="Via_Nuova_Poggioreale" color="1,0,0"/>
	<flow id="flusso8"  begin="0.00" end="5000.00" number="300" from="Corso_Arnaldo_Lucci" to="Calata_Capodichino" color="1,0,0"/>
	<flow id="flusso9"  begin="0.00" end="5000.00" number="300" from="Corso_Arnaldo_Lucci" to="Via_Miano" color="1,0,0"/>
	<flow id="flusso10" begin="0.00" end="5000.00" number="400" from="Via_Taddeo_Sessa" to="-Corso_Arnaldo_Lucci" color="1,0,0"/>
	<flow id="flusso11" begin="0.00" end="5000.00" number="30" from="-Calata_Capodichino" to="Via_Foria_00" color="1,0,0"/>
	<flow id="flusso12" begin="0.00" end="5000.00" number="30" from="-Calata_Capodichino" to="-Via_Taddeo_Sessa" color="1,0,0"/>
	<flow id="flusso13" begin="0.00" end="5000.00" number="90" from="-Via_Nuova_Poggioreale" to="Calata_Capodichino" color="1,0,0"/>
	<flow id="flusso14" begin="0.00" end="5000.00" number="70" from="-Via_Nuova_Poggioreale" to="Via_Miano" color="1,0,0"/>
	<flow id="flusso15" begin="20.00" end="300.00" number="140" from="Via_Veterinaia_0" to="Via_Foria_00" color="1,0,0"/>
	
	
	<!-- Generazione percorsi random -->
    <vehicle id="0" depart="0.00" color="1,0,0">
        <route edges="Via_Sant_Antonio_Abate_1 -Via_Santa_Maria_Avv Via_Santa_Maria_Avv_2 Via_Pontenuovo_1 gneE211 -via_Cesare_Rosaroli gneE8 -Corso_Meridionale_1"/>
    </vehicle>
    <vehicle id="1" depart="2.00" color="1,0,0">
        <route edges="-gneE62 -gneE181 -gneE129 Rotonda_6 Rotonda_7 Rotonda_1 -gneE31 -gneE32 -gneE33 gneE210 Corso_Garibaldi_10 -gneE230"/>
    </vehicle>
    <vehicle id="2" depart="4.00" color="1,0,0">
        <route edges="gneE100 --330257694 gneE54 168639494 Rotondone_1 Rotondone_2 Rotondone_3 Rotondone_4 gneE234 Via_Nuova_Poggioreale_1 gneE83 Via_Taddeo_Sessa_1"/>
    </vehicle>
    <vehicle id="3" depart="6.00" color="1,0,0">
        <route edges="gneE228 gneE159 -gneE197 gneE227 gneE130 gneE144 Via_Nuova_Poggioreale_4 Via_Nuova_Poggioreale_3 Via_Nuova_Poggioreale_2 Via_Nuova_Poggioreale_1 gneE83 -Via_Taddeo_Sessa"/>
    </vehicle>
    <vehicle id="4" depart="8.00" color="1,0,0">
        <route edges="Rotondone_1 gneE100 gneE101 gneE102 gneE230 Corso_Garibaldi_20 -Corso_Meridionale_1"/>
    </vehicle>
    <vehicle id="5" depart="10.00" color="1,0,0">
        <route edges="-gneE226 gneE159 -gneE197 gneE227 -gneE62 -gneE181 -gneE129 Rotonda_6 Rotonda_7 Via_Foria_70 Via_Foria_60 Via_Foria_50 Via_Foria_40 Via_Foria_30 Via_Foria_20"/>
    </vehicle>
    <vehicle id="6" depart="12.00" color="1,0,0">
        <route edges="-Corso_Meridionale_1 -gneE65 gneE102 gneE230 416695585 gneE7 -Via_Carbonara -gneE221"/>
    </vehicle>
    <vehicle id="7" depart="14.00" color="1,0,0">
        <route edges="Via_Sant_Antonio_Abate_2 -Via_Santa_Maria_Avv Via_Pasquale_2 Via_Foria_4 Via_Foria_5 SantAntonio_AbateTerzo gneE32 SantAntonio_Abate Via_Foria_60 Via_Foria_50"/>
    </vehicle>
    <vehicle id="8" depart="16.00" color="1,0,0">
        <route edges="-gneE226 gneE159 -gneE197 gneE227 gneE130 gneE144 Via_Nuova_Poggioreale_4 Via_Nuova_Poggioreale_3 Via_Nuova_Poggioreale_2"/>
    </vehicle>
    <vehicle id="9" depart="18.00" color="1,0,0">
        <route edges="gneE177 gneE127 gneE181 gneE62 gneE130 gneE144 -gneE118 98613281#0 -330257694"/>
    </vehicle>
    <vehicle id="10" depart="20.00" color="1,0,0">
        <route edges="gneE177 gneE127 -gneE129 Rotonda_6 Rotonda_7 Via_Foria_70 Via_Foria_60 Via_Foria_50 Via_Veterinaia_0 Via_Veterinaia_1"/>
    </vehicle>
    <vehicle id="11" depart="22.00" color="1,0,0">
        <route edges="Corso_Garibaldi_1 Corso_Garibaldi gneE193 Rotonda_3 Rotonda_4 Rotonda_5 gneE129 -gneE127 -gneE177"/>
    </vehicle>
    <vehicle id="12" depart="24.00" color="1,0,0">
        <route edges="gneE65 Corso_Meridionale_1 Corso_Garibaldi_2 416695585 via_Cesare_Rosaroli -gneE211 Salita_Pontenuovo_1 Salita_Pontenuovo_2 Vico_Tutti_i_Santi gneE210 Corso_Garibaldi_10"/>
    </vehicle>
    <vehicle id="13" depart="26.00" color="1,0,0">
        <route edges="-Via_Santa_Maria_ai_monti gneE227 gneE130 gneE144 -gneE118 -gneE103 gneE65 -Corso_Meridionale -Via_Taddeo_Sessa_1"/>
    </vehicle>
    <vehicle id="14" depart="28.00" color="1,0,0">
        <route edges="gneE207 Rotondone_6 -gneE12 Rotonda_4 Via_Nuova_Poggioreale_5 Via_Nuova_Poggioreale_4"/>
    </vehicle>
    <vehicle id="15" depart="30.00" color="1,0,0">
        <route edges="gneE177 gneE127 -gneE129 Rotonda_6 Rotonda_7 Via_Foria_70 Via_Foria_60 Via_Foria_50 Via_Sant_Antonio_Abate_1 -Via_Sant_Antonio_Abate Vico_Tutti_i_Santi"/>
    </vehicle>
    <vehicle id="16" depart="32.00" color="1,0,0">
        <route edges="Via_Foria_4 Via_Sant_Antonio_Abate_1 -Via_Santa_Maria_Avv Via_Santa_Maria_Avv_2 Via_Pontenuovo_1 gneE211 -via_Cesare_Rosaroli gneE8"/>
    </vehicle>
    <vehicle id="17" depart="34.00" color="1,0,0">
        <route edges="Rotonda_1 -gneE31 SantAntonio_Abate Via_Foria_60 Via_Foria_50 Via_Sant_Antonio_Abate_1 -Via_Santa_Maria_Avv Via_Pasquale_2 Via_Foria_4 Via_Foria_5 Via_Foria_6"/>
    </vehicle>
    <vehicle id="18" depart="36.00" color="1,0,0">
        <route edges="gneE193 Rotonda_3 Rotonda_4 Rotonda_5 Rotonda_6 Rotonda_7 Via_Foria_70 Via_Foria_60 Via_Foria_50 Via_Sant_Antonio_Abate_1 -Via_Santa_Maria_Avv Via_Santa_Maria_Avv_2 Via_Pontenuovo_1 Salita_Pontenuovo_1 Via_Pasquale_1"/>
    </vehicle>
    <vehicle id="19" depart="38.00" color="1,0,0">
        <route edges="gneE211 via_Cesare_Rosaroli_1 Via_Foria_2 Via_Foria_3 Via_Foria_4 Via_Foria_5 Via_Foria_6 Via_Foria_7 Rotonda_1 Rotonda_2 Rotonda_3 Rotonda_4 Via_Nuova_Poggioreale_5 Via_Nuova_Poggioreale_4 Via_Nuova_Poggioreale_3 Via_Nuova_Poggioreale_2 Via_Nuova_Poggioreale_1 Via_Nuova_Poggioreale"/>
    </vehicle>
    <vehicle id="20" depart="40.00" color="1,0,0">
        <route edges="Via_Veterinaia_1 Via_SantaMaria_DegliAngeli Vico_SantaMaria Via_Veterinaia_00 Via_Foria_5 Via_Foria_6 Via_Foria_7 Rotonda_1 Rotonda_2 Rotonda_3 gneE12 Rotondone_7 Rotondone_1 Rotondone_2 Rotondone_3 Rotondone_4 gneE234 -Via_Nuova_Poggioreale_2"/>
    </vehicle>
    <vehicle id="21" depart="42.00" color="1,0,0">
        <route edges="-gneE228 gneE223 gneE127 gneE181 gneE62 gneE130 gneE144 -gneE118 98613281#0 gneE54 168639494"/>
    </vehicle>
    <vehicle id="22" depart="44.00" color="1,0,0">
        <route edges="-Via_Sant_Antonio_Abate Vico_Tutti_i_Santi gneE33 gneE32 SantAntonio_Abate Via_Foria_60 Via_Foria_50 Via_Foria_40 Via_Foria_30 Via_Foria_20 -gneE182 -gneE231"/>
    </vehicle>
    <vehicle id="23" depart="46.00" color="1,0,0">
        <route edges="-Via_Taddeo_Sessa_1 -gneE83 -Via_Nuova_Poggioreale_1 -Via_Nuova_Poggioreale_2 -Via_Nuova_Poggioreale_3 -Via_Nuova_Poggioreale_4 -Via_Nuova_Poggioreale_5 Rotonda_5 Rotonda_6 Rotonda_7 Via_Foria_70 Via_Foria_60 Via_Foria_50 Via_Sant_Antonio_Abate_1 -Via_Santa_Maria_Avv Via_Santa_Maria_Avv_2 Via_Pontenuovo_1 gneE211 -via_Cesare_Rosaroli"/>
    </vehicle>
    <vehicle id="24" depart="48.00" color="1,0,0">
        <route edges="Via_Pontenuovo_2 Via_Pontenuovo_1 Salita_Pontenuovo_1 Via_Pasquale_1 Via_Pasquale_2 Via_Foria_4 Via_Foria_5 Via_Foria_6 Via_Foria_7 Rotonda_1"/>
    </vehicle>
    <vehicle id="25" depart="50.00" color="1,0,0">
        <route edges="Corso_Meridionale_1 Corso_Garibaldi_2 Corso_Garibaldi_1 Corso_Garibaldi gneE193 Rotonda_3 Rotonda_4 Rotonda_5 gneE129 gneE181 gneE62 -gneE227"/>
    </vehicle>
	<!-- Veicolo Intelligente -->
	<!-- <vehicle id="Veicolo_Intelligente" color="1,1,0" depart="51.00"> -->
        <!-- <route edges = "Via_Foria_0 Via_Foria_1 Via_Foria_2 Via_Foria_3 Via_Foria_4 Via_Veterinaia_0 Via_Veterinaia_1 Via_Veterinaia_2 gneE184 gneE228 gneE159 Via_Miano"/> -->
    <!-- </vehicle> -->
	<vehicle id="Veicolo_Intelligente" color="1,1,0" depart="51.00"> 
        <route edges = "Via_Foria_0 Via_Foria_1 Via_Foria_2 Via_Foria_3 Via_Foria_4 Via_Foria_5 Via_Foria_6 Via_Foria_7 Rotonda_1 Rotonda_2 Rotonda_3 Rotonda_4 Rotonda_5 gneE129 gneE181 -gneE226 gneE159 Via_Miano"/> 
    </vehicle> 
    <vehicle id="26" depart="52.00" color="1,0,0">
        <route edges="-gneE33 -Vico_Tutti_i_santi Via_Sant_Antonio_Abate_2 -Via_Santa_Maria_Avv Via_Pasquale_2 Via_Foria_4 Via_Foria_5 SantAntonio_AbateTerzo gneE32"/>
    </vehicle>
    <vehicle id="27" depart="54.00" color="1,0,0">
        <route edges="Via_Sant_Antonio_Abate_2 -Via_Santa_Maria_Avv Via_Pasquale_2 Via_Foria_4 Via_Foria_5 Via_Foria_6 Via_Foria_7 Rotonda_1 Rotonda_2 Rotonda_3 Rotonda_4 Via_Nuova_Poggioreale_5"/>
    </vehicle>
    <vehicle id="28" depart="56.00" color="1,0,0">
        <route edges="-gneE181 -gneE129 Rotonda_6 Rotonda_7 Via_Foria_70 Via_Foria_60 Via_Foria_50 Via_Sant_Antonio_Abate_1 -Via_Sant_Antonio_Abate Vico_Tutti_i_Santi"/>
    </vehicle>
    <vehicle id="29" depart="58.00" color="1,0,0">
        <route edges="-gneE177 gneE184 gneE223 gneE127 -gneE129 Rotonda_6 Rotonda_7 Rotonda_1 Rotonda_2 Rotonda_3"/>
    </vehicle>
    <vehicle id="30" depart="60.00" color="1,0,0">
        <route edges="via_Cesare_Rosaroli -gneE211 Salita_Pontenuovo_1 Via_Pasquale_1 Via_Pasquale_2 Via_Foria_4 Via_Sant_Antonio_Abate_1"/>
    </vehicle>
    <vehicle id="31" depart="62.00" color="1,0,0">
        <route edges="Via_Foria_50 Via_Veterinaia_0"/>
    </vehicle>
    <vehicle id="32" depart="64.00" color="1,0,0">
        <route edges="gneE2 Corso_Garibaldi_2 Corso_Garibaldi_1 Corso_Garibaldi gneE193 Rotonda_3 Rotonda_4 Rotonda_5 gneE129"/>
    </vehicle>
    <vehicle id="33" depart="66.00" color="1,0,0">
        <route edges="-gneE228 gneE223 gneE127 -gneE129 Rotonda_6 Rotonda_7 Rotonda_1 -gneE31 -gneE32 -gneE33 gneE210 Corso_Garibaldi_10 416695585 gneE7 -Via_Carbonara"/>
    </vehicle>
    <vehicle id="34" depart="68.00" color="1,0,0">
        <route edges="98613281#0 -330257694 gneE101 gneE102 gneE230 Corso_Garibaldi_20 -Corso_Meridionale_1 -gneE65"/>
    </vehicle>
    <vehicle id="35" depart="70.00" color="1,0,0">
        <route edges="-gneE221 gneE182 -via_Cesare_Rosaroli_10 -gneE211 Salita_Pontenuovo_1 Salita_Pontenuovo_2 Vico_Tutti_i_Santi gneE33"/>
    </vehicle>
    <vehicle id="36" depart="72.00" color="1,0,0">
        <route edges="gneE223 gneE127 -gneE129 Rotonda_6 Rotonda_7 Rotonda_1 Rotonda_2 Rotonda_3 Rotonda_4 Calata_Capodichino_1"/>
    </vehicle>
    <vehicle id="37" depart="74.00" color="1,0,0">
        <route edges="Via_SantaMaria_DegliAngeli Vico_SantaMaria Via_Veterinaia_00 Via_Foria_5 Via_Foria_6 Via_Foria_7 Rotonda_1 Rotonda_2 Rotonda_3 Rotonda_4 Rotonda_5 Rotonda_6"/>
    </vehicle>
    <vehicle id="38" depart="76.00" color="1,0,0">
        <route edges="gneE234 -Via_Nuova_Poggioreale_2 -Via_Nuova_Poggioreale_3 -Via_Nuova_Poggioreale_4 -Via_Nuova_Poggioreale_5 Rotonda_5 Rotonda_6 Rotonda_7 Via_Foria_70 Via_Foria_60 Via_Foria_50 Via_Sant_Antonio_Abate_1 -Via_Santa_Maria_Avv Via_Santa_Maria_Avv_2 Via_Pontenuovo_1 Salita_Pontenuovo_1 Salita_Pontenuovo_2"/>
    </vehicle>
    <vehicle id="39" depart="78.00" color="1,0,0">
        <route edges="-gneE33 gneE210 Corso_Garibaldi gneE193 Rotonda_3 Rotonda_4 Rotonda_5 Rotonda_6 Rotonda_7 Rotonda_1 -gneE31 -gneE32"/>
    </vehicle>
    <vehicle id="40" depart="80.00" color="1,0,0">
        <route edges="Via_Foria_6 Via_Foria_7 Rotonda_1 Rotonda_2 Rotonda_3 Rotonda_4 Via_Nuova_Poggioreale_5 -gneE144 -gneE130 -gneE62"/>
    </vehicle>
    <vehicle id="41" depart="82.00" color="1,0,0">
        <route edges="Via_Nuova_Poggioreale_1 gneE83 Via_Taddeo_Sessa_1 Corso_Meridionale -gneE65 gneE102 gneE230"/>
    </vehicle>
    <vehicle id="42" depart="84.00" color="1,0,0">
        <route edges="Rotonda_5 gneE129 gneE181 -gneE226 -gneE228"/>
    </vehicle>
    <vehicle id="43" depart="86.00" color="1,0,0">
        <route edges="via_Cesare_Rosaroli_1 Via_Foria_2 Via_Foria_3"/>
    </vehicle>
    <vehicle id="44" depart="88.00" color="1,0,0">
        <route edges="-Via_Santa_Maria_Avv Via_Pasquale_2 Via_Foria_4 Via_Foria_5 Via_Foria_6 Via_Foria_7 Rotonda_1 Rotonda_2 Rotonda_3 gneE12 Rotondone_7 Rotondone_1 Rotondone_2 Rotondone_3 Rotondone_4 gneE234 -Via_Nuova_Poggioreale_2"/>
    </vehicle>
    <vehicle id="45" depart="90.00" color="1,0,0">
        <route edges="-Vico_Tutti_i_santi Via_Sant_Antonio_Abate_2 -Via_Santa_Maria_Avv Via_Santa_Maria_Avv_2 Via_Pontenuovo_1"/>
    </vehicle>
    <vehicle id="46" depart="92.00" color="1,0,0">
        <route edges="gneE144 Via_Nuova_Poggioreale_4 gneE207 Rotondone_6 Rotondone_7 Rotondone_1 Rotondone_2 Rotondone_3"/>
    </vehicle>
    <vehicle id="47" depart="94.00" color="1,0,0">
        <route edges="-Via_Nuova_Poggioreale_3 -Via_Nuova_Poggioreale_4 -Via_Nuova_Poggioreale_5 Rotonda_5 Rotonda_6 Rotonda_7 Rotonda_1 Rotonda_2 Rotonda_3 Rotonda_4"/>
    </vehicle>
    <vehicle id="48" depart="96.00" color="1,0,0">
        <route edges="via_Cesare_Rosaroli_1 -gneE182 -gneE231 Vico_SantaMaria Via_Veterinaia_00 Via_Foria_40"/>
    </vehicle>
    <vehicle id="49" depart="98.00" color="1,0,0">
        <route edges="gneE8 Corso_Garibaldi_2 416695585 via_Cesare_Rosaroli -gneE211 Salita_Pontenuovo_1 Via_Pasquale_1 Via_Santa_Maria_Avv_2 Via_Pontenuovo_1 gneE211"/>
    </vehicle>
    <vehicle id="50" depart="100.00" color="1,0,0">
        <route edges="-330257694 gneE101 gneE102 gneE230 416695585 via_Cesare_Rosaroli via_Cesare_Rosaroli_1 -gneE182 -gneE231 Vico_SantaMaria"/>
    </vehicle>
    <vehicle id="51" depart="102.00" color="1,0,0">
        <route edges="Via_Taddeo_Sessa_1 Corso_Meridionale Corso_Meridionale_1 Corso_Garibaldi_2 416695585 via_Cesare_Rosaroli -gneE211 Salita_Pontenuovo_1 Via_Pasquale_1 Via_Pasquale_2 Via_Foria_4 Via_Foria_5"/>
    </vehicle>
    <vehicle id="52" depart="104.00" color="1,0,0">
        <route edges="-gneE33 -Vico_Tutti_i_santi Via_Sant_Antonio_Abate_2 -Via_Santa_Maria_Avv Via_Pasquale_2 Via_Foria_4 Via_Sant_Antonio_Abate_1"/>
    </vehicle>
    <vehicle id="53" depart="106.00" color="1,0,0">
        <route edges="-gneE103 gneE65 -Corso_Meridionale gneE96 Rotondone_3 Rotondone_4 Rotondone_5"/>
    </vehicle>
    <vehicle id="54" depart="108.00" color="1,0,0">
        <route edges="Rotondone_6 -gneE12 Rotonda_4 Rotonda_5 gneE129 gneE181 gneE62"/>
    </vehicle>
    <vehicle id="55" depart="110.00" color="1,0,0">
        <route edges="gneE223 -gneE177 gneE184 gneE228 gneE159 -gneE197 gneE227 -gneE62"/>
    </vehicle>
    <vehicle id="56" depart="112.00" color="1,0,0">
        <route edges="Via_Foria_1 -via_Cesare_Rosaroli_10 -via_Cesare_Rosaroli gneE8 -gneE2"/>
    </vehicle>
    <vehicle id="57" depart="114.00" color="1,0,0">
        <route edges="gneE233 -Via_Nuova_Poggioreale_3 -Via_Nuova_Poggioreale_4 -Via_Nuova_Poggioreale_5 Rotonda_5 Rotonda_6 Rotonda_7 Via_Foria_70 Via_Foria_60 Via_Foria_50 Via_Foria_40 Via_Foria_30 Via_Foria_20 -gneE182 gneE221"/>
    </vehicle>
    <vehicle id="58" depart="116.00" color="1,0,0">
        <route edges="-via_Cesare_Rosaroli_10 -gneE211 Salita_Pontenuovo_1 Via_Pasquale_1 Via_Pasquale_2 Via_Foria_4 Via_Sant_Antonio_Abate_1"/>
    </vehicle>
    <vehicle id="59" depart="118.00" color="1,0,0">
        <route edges="Via_Nuova_Poggioreale_5 -gneE144 -gneE130 -gneE227 gneE197 -gneE159"/>
    </vehicle>
    <vehicle id="60" depart="120.00" color="1,0,0">
        <route edges="gneE118 -Via_Nuova_Poggioreale_5 Rotonda_5 Rotonda_6 Rotonda_7 Via_Foria_70 Via_Foria_60 Via_Foria_50 Via_Sant_Antonio_Abate_1 -Via_Santa_Maria_Avv Via_Pasquale_2 Via_Foria_4 Via_Foria_5"/>
    </vehicle>
    <vehicle id="61" depart="122.00" color="1,0,0">
        <route edges="gneE127 -gneE129 Rotonda_6 Rotonda_7 Via_Foria_70 Via_Foria_60 Via_Foria_50 Via_Foria_40"/>
    </vehicle>
    <vehicle id="62" depart="124.00" color="1,0,0">
        <route edges="--330257694 gneE54 168639494 Rotondone_1 gneE100 gneE101 gneE102 gneE230 Corso_Garibaldi_1 Corso_Garibaldi"/>
    </vehicle>
    <vehicle id="63" depart="126.00" color="1,0,0">
        <route edges="-Corso_Meridionale gneE96 Rotondone_3 Rotondone_4 Rotondone_5 Rotondone_6 -gneE12 Rotonda_4 Rotonda_5 Rotonda_6 Rotonda_7 Via_Foria_70 Via_Foria_60 SantAntonio_AbateTerzo gneE32 gneE31"/>
    </vehicle>
    <vehicle id="64" depart="128.00" color="1,0,0">
        <route edges="gneE226 -gneE181 -gneE129 Rotonda_6 Rotonda_7 Rotonda_1 -gneE31 -gneE32 -gneE33 gneE210 Corso_Garibaldi gneE193"/>
    </vehicle>
    <vehicle id="65" depart="130.00" color="1,0,0">
        <route edges="416695585 gneE8 -Corso_Meridionale_1 -Corso_Meridionale gneE96 Rotondone_3 Rotondone_4 gneE234 -Via_Nuova_Poggioreale_2 -Via_Nuova_Poggioreale_3 -Via_Nuova_Poggioreale_4"/>
    </vehicle>
    <vehicle id="66" depart="132.00" color="1,0,0">
        <route edges="gneE226 gneE62 gneE130 gneE144 -gneE118 98613281#0 gneE54"/>
    </vehicle>
    <vehicle id="67" depart="134.00" color="1,0,0">
        <route edges="-Via_Sant_Antonio_Abate Vico_Tutti_i_Santi gneE210 Corso_Garibaldi_10 416695585 gneE7 -Via_Carbonara Via_Foria_1"/>
    </vehicle>
    <vehicle id="68" depart="136.00" color="1,0,0">
        <route edges="-Via_Nuova_Poggioreale_4 -gneE118 98613281#0 -330257694 gneE101 gneE103 gneE118"/>
    </vehicle>
    <vehicle id="69" depart="138.00" color="1,0,0">
        <route edges="gneE118 -Via_Nuova_Poggioreale_5 Rotonda_5 gneE129 -gneE127"/>
    </vehicle>
    <vehicle id="70" depart="140.00" color="1,0,0">
        <route edges="SantAntonio_Abate Via_Foria_60 Via_Foria_50 Via_Sant_Antonio_Abate_1 -Via_Santa_Maria_Avv Via_Pasquale_2 Via_Foria_4 Via_Foria_5 Via_Foria_6"/>
    </vehicle>
    <vehicle id="71" depart="142.00" color="1,0,0">
        <route edges="-gneE33 gneE210 Corso_Garibaldi gneE193 Rotonda_3 Rotonda_4 Rotonda_5 gneE129 -gneE127 -gneE177 gneE184 gneE223"/>
    </vehicle>
    <vehicle id="72" depart="144.00" color="1,0,0">
        <route edges="Rotondone_1 gneE100 gneE101 gneE103 gneE118 -gneE144 -gneE130 -gneE227"/>
    </vehicle>
    <vehicle id="73" depart="146.00" color="1,0,0">
        <route edges="Via_Foria_4 Via_Sant_Antonio_Abate_1 -Via_Sant_Antonio_Abate Vico_Tutti_i_Santi"/>
    </vehicle>
    <vehicle id="74" depart="148.00" color="1,0,0">
        <route edges="-gneE210 gneE33 gneE32 gneE31 Rotonda_2 Rotonda_3 Rotonda_4 Calata_Capodichino_1 Calata_Capodichino"/>
    </vehicle>
    <vehicle id="75" depart="150.00" color="1,0,0">
        <route edges="via_Cesare_Rosaroli_1 Via_Foria_2 Via_Pontenuovo_2 Via_Pontenuovo_1 Salita_Pontenuovo_1 Salita_Pontenuovo_2 Via_Sant_Antonio_Abate_2"/>
    </vehicle>
    <vehicle id="76" depart="152.00" color="1,0,0">
        <route edges="Rotondone_4 Rotondone_5 Rotondone_6 -gneE12 Rotonda_4 Rotonda_5 Rotonda_6 Rotonda_7 Via_Foria_70 Via_Foria_60 Via_Foria_50 Via_Foria_40 Via_Foria_30"/>
    </vehicle>
    <vehicle id="77" depart="154.00" color="1,0,0">
        <route edges="-gneE118 -gneE103 gneE102 gneE230 416695585 gneE8 Corso_Garibaldi_2 -gneE230"/>
    </vehicle>
    <vehicle id="78" depart="156.00" color="1,0,0">
        <route edges="Corso_Garibaldi_1 Corso_Garibaldi gneE193 Rotonda_3 Rotonda_4 Via_Nuova_Poggioreale_5 Via_Nuova_Poggioreale_4 Via_Nuova_Poggioreale_3 Via_Nuova_Poggioreale_2 Via_Nuova_Poggioreale_1"/>
    </vehicle>
    <vehicle id="79" depart="158.00" color="1,0,0">
        <route edges="-gneE228"/>
    </vehicle>
    <vehicle id="80" depart="160.00" color="1,0,0">
        <route edges="-Via_Nuova_Poggioreale_4 -Via_Nuova_Poggioreale_5 Rotonda_5 Rotonda_6 Rotonda_7 Via_Foria_70 Via_Foria_60 Via_Foria_50 Via_Sant_Antonio_Abate_1 -Via_Santa_Maria_Avv Via_Santa_Maria_Avv_2 Via_Pontenuovo_1"/>
    </vehicle>
    <vehicle id="81" depart="162.00" color="1,0,0">
        <route edges="-gneE228 gneE223 -gneE177 Via_Veterinaia_20 Via_SantaMaria_DegliAngeli gneE231"/>
    </vehicle>
    <vehicle id="82" depart="164.00" color="1,0,0">
        <route edges="gneE211 via_Cesare_Rosaroli_1 Via_Foria_2 Via_Foria_3 Via_Foria_4 Via_Sant_Antonio_Abate_1 -Via_Sant_Antonio_Abate"/>
    </vehicle>
    <vehicle id="83" depart="166.00" color="1,0,0">
        <route edges="-gneE230 gneE235 gneE118 -gneE144 -gneE130 -gneE227 Via_Santa_Maria_ai_monti"/>
    </vehicle>
    <vehicle id="84" depart="168.00" color="1,0,0">
        <route edges="-gneE221 -gneE231 Vico_SantaMaria Via_Veterinaia_1 Via_Veterinaia_2 gneE177 gneE127 -gneE129"/>
    </vehicle>
    <vehicle id="85" depart="170.00" color="1,0,0">
        <route edges="gneE32 gneE31 Rotonda_2 Rotonda_3 Rotonda_4 Rotonda_5 gneE129 gneE181 -gneE226 gneE159 Via_Miano"/>
    </vehicle>
    <vehicle id="86" depart="172.00" color="1,0,0">
        <route edges="SantAntonio_Abate Via_Foria_7 Rotonda_1 Rotonda_2 Rotonda_3 Rotonda_4 Rotonda_5 gneE129 gneE181 gneE62 gneE130"/>
    </vehicle>
    <vehicle id="87" depart="174.00" color="1,0,0">
        <route edges="gneE177 gneE127 -gneE129 Rotonda_6 Rotonda_7 Via_Foria_70 Via_Foria_60 Via_Foria_50 Via_Foria_40 Via_Foria_30 Via_Foria_20 -via_Cesare_Rosaroli_10 -gneE211"/>
    </vehicle>
    <vehicle id="88" depart="176.00" color="1,0,0">
        <route edges="-Via_Santa_Maria_ai_monti gneE227 gneE130 gneE144 Via_Nuova_Poggioreale_4 gneE207 Rotondone_6 Rotondone_7 Rotondone_1 Rotondone_2 Rotondone_3 Rotondone_4 Rotondone_5"/>
    </vehicle>
    <vehicle id="89" depart="178.00" color="1,0,0">
        <route edges="Rotondone_2 Rotondone_3 Rotondone_4 Rotondone_5 Rotondone_6 -gneE12 Rotonda_4 Rotonda_5 Rotonda_6 Rotonda_7 Via_Foria_70 Via_Foria_60 SantAntonio_AbateTerzo"/>
    </vehicle>
    <vehicle id="90" depart="180.00" color="1,0,0">
        <route edges="Vico_SantaMaria Via_Veterinaia_00 Via_Foria_5 Via_Foria_6 Via_Foria_7 Rotonda_1 Rotonda_2 Rotonda_3 Rotonda_4 Rotonda_5 gneE129 gneE181 gneE62 -gneE227 Via_Santa_Maria_ai_monti"/>
    </vehicle>
    <vehicle id="91" depart="182.00" color="1,0,0">
        <route edges="gneE96 Rotondone_3 Rotondone_4 Rotondone_5 Rotondone_6 Rotondone_7 Rotondone_1 gneE100 gneE101 gneE102 gneE230 Corso_Garibaldi_1 -gneE210 -Vico_Tutti_i_santi"/>
    </vehicle>
    <vehicle id="92" depart="184.00" color="1,0,0">
        <route edges="Rotonda_5 Rotonda_6 Rotonda_7 Rotonda_1 -gneE31 -gneE32 -gneE33 gneE210 Corso_Garibaldi_10 416695585 gneE8 Corso_Garibaldi_2"/>
    </vehicle>
    <vehicle id="93" depart="186.00" color="1,0,0">
        <route edges="gneE211 via_Cesare_Rosaroli_1 Via_Foria_2 Via_Foria_3 Via_Foria_4 Via_Foria_5 Via_Foria_6 Via_Foria_7 Rotonda_1 -gneE31 -gneE32"/>
    </vehicle>
    <vehicle id="94" depart="188.00" color="1,0,0">
        <route edges="-gneE2 -Via_Carbonara Via_Foria_1 -via_Cesare_Rosaroli_10 -gneE211 Salita_Pontenuovo_1"/>
    </vehicle>
    <vehicle id="95" depart="190.00" color="1,0,0">
        <route edges="Rotondone_1 gneE100 gneE101 gneE102 gneE230 416695585 via_Cesare_Rosaroli -gneE211 Salita_Pontenuovo_1 Via_Pasquale_1 Via_Santa_Maria_Avv_2 Via_Pontenuovo_1 gneE211 -via_Cesare_Rosaroli"/>
    </vehicle>
    <vehicle id="96" depart="192.00" color="1,0,0">
        <route edges="-gneE233 gneE144 -gneE118 -gneE103 gneE102 gneE235"/>
    </vehicle>
    <vehicle id="97" depart="194.00" color="1,0,0">
        <route edges="Rotondone_5 Rotondone_6 Rotondone_7 Rotondone_1 gneE100 gneE101 gneE102 gneE230 416695585 via_Cesare_Rosaroli -gneE211 Salita_Pontenuovo_1 Via_Pasquale_1 Via_Santa_Maria_Avv_2 Via_Pontenuovo_1 gneE211"/>
    </vehicle>
    <vehicle id="98" depart="196.00" color="1,0,0">
        <route edges="Via_Foria_5 Via_Foria_6 Via_Foria_7 Rotonda_1 Rotonda_2 Rotonda_3 Rotonda_4 Via_Nuova_Poggioreale_5 -gneE144 gneE233 -Via_Nuova_Poggioreale_3"/>
    </vehicle>
    <vehicle id="99" depart="198.00" color="1,0,0">
        <route edges="via_Cesare_Rosaroli_1 Via_Foria_2 Via_Foria_3 Via_Foria_4 Via_Foria_5 Via_Foria_6 Via_Foria_7 Rotonda_1 Rotonda_2 Rotonda_3 Rotonda_4 Rotonda_5 gneE129 gneE181 gneE62 -gneE227 gneE197"/>
    </vehicle>
    <vehicle id="100" depart="200.00" color="1,0,0">
        <route edges="gneE7 gneE2 Corso_Garibaldi_2 -gneE230 gneE235"/>
    </vehicle>
    <vehicle id="101" depart="202.00" color="1,0,0">
        <route edges="gneE207 Rotondone_6 Rotondone_7 Rotondone_1 gneE100 gneE101 gneE102 gneE230 416695585 via_Cesare_Rosaroli via_Cesare_Rosaroli_1 -gneE182"/>
    </vehicle>
    <vehicle id="102" depart="204.00" color="1,0,0">
        <route edges="Via_Carbonara gneE2 Corso_Garibaldi_2 Corso_Garibaldi_1 Corso_Garibaldi gneE193 Rotonda_3 Rotonda_4 Rotonda_5 gneE129 gneE181 gneE62 -gneE227"/>
    </vehicle>
    <vehicle id="103" depart="206.00" color="1,0,0">
        <route edges="Rotonda_5 gneE129 gneE181 gneE62 gneE130 gneE233 -Via_Nuova_Poggioreale_3 -Via_Nuova_Poggioreale_4"/>
    </vehicle>
    <vehicle id="104" depart="208.00" color="1,0,0">
        <route edges="Rotonda_1 Rotonda_2 Rotonda_3 Rotonda_4 Via_Nuova_Poggioreale_5 -gneE118 -gneE103 gneE65 -Corso_Meridionale gneE96"/>
    </vehicle>
    <vehicle id="105" depart="210.00" color="1,0,0">
        <route edges="-gneE33 gneE210 Corso_Garibaldi gneE193 Rotonda_3 Rotonda_4 Rotonda_5 gneE129 gneE181 gneE62 gneE130"/>
    </vehicle>
    <vehicle id="106" depart="212.00" color="1,0,0">
        <route edges="Rotondone_7 Rotondone_1 Rotondone_2 Rotondone_3"/>
    </vehicle>
    <vehicle id="107" depart="214.00" color="1,0,0">
        <route edges="gneE65 Corso_Meridionale_1 Corso_Garibaldi_2 416695585 via_Cesare_Rosaroli via_Cesare_Rosaroli_1"/>
    </vehicle>
    <vehicle id="108" depart="216.00" color="1,0,0">
        <route edges="Via_Foria_50 Via_Veterinaia_0 Via_Veterinaia_1 Via_SantaMaria_DegliAngeli Vico_SantaMaria"/>
    </vehicle>
    <vehicle id="109" depart="218.00" color="1,0,0">
        <route edges="-gneE159 gneE226 -gneE181 -gneE129 Rotonda_6 Rotonda_7 Rotonda_1 -gneE31 -gneE32 -gneE33 gneE210 Corso_Garibaldi_10 416695585"/>
    </vehicle>
    <vehicle id="110" depart="220.00" color="1,0,0">
        <route edges="gneE7 gneE2 -Corso_Meridionale_1 -Corso_Meridionale gneE96 Rotondone_3 Rotondone_4 gneE234 Via_Nuova_Poggioreale_1 Via_Nuova_Poggioreale"/>
    </vehicle>
    <vehicle id="111" depart="222.00" color="1,0,0">
        <route edges="Via_Foria_40 Via_Foria_30 Via_Pontenuovo_2 Via_Pontenuovo_1 gneE211 -via_Cesare_Rosaroli gneE8 -Corso_Meridionale_1 -gneE65 gneE102"/>
    </vehicle>
    <vehicle id="112" depart="224.00" color="1,0,0">
        <route edges="-Via_Nuova_Poggioreale_2 -Via_Nuova_Poggioreale_3 -Via_Nuova_Poggioreale_4 -gneE144 gneE233 Via_Nuova_Poggioreale_2 Via_Nuova_Poggioreale_1"/>
    </vehicle>
    <vehicle id="113" depart="226.00" color="1,0,0">
        <route edges="Via_Foria_1 Via_Foria_2 Via_Foria_3 Via_Foria_4 Via_Foria_5 Via_Foria_6 Via_Foria_7 Rotonda_1 Rotonda_2 Rotonda_3 Rotonda_4 Via_Nuova_Poggioreale_5 Via_Nuova_Poggioreale_4 gneE207"/>
    </vehicle>
    <vehicle id="114" depart="228.00" color="1,0,0">
        <route edges="-gneE159 gneE226 gneE62 gneE130 gneE144 -gneE118 -gneE103 gneE65"/>
    </vehicle>
    <vehicle id="115" depart="230.00" color="1,0,0">
        <route edges="-Via_Sant_Antonio_Abate Vico_Tutti_i_Santi gneE210 Corso_Garibaldi_10 416695585 gneE8 Corso_Garibaldi_2 Corso_Garibaldi_1 -gneE210"/>
    </vehicle>
    <vehicle id="116" depart="232.00" color="1,0,0">
        <route edges="Via_Nuova_Poggioreale_2 Via_Nuova_Poggioreale_1 gneE83 Via_Taddeo_Sessa_1"/>
    </vehicle>
    <vehicle id="117" depart="234.00" color="1,0,0">
        <route edges="-gneE230 gneE235 98613281#0 gneE54 168639494 Rotondone_1 Rotondone_2 Rotondone_3 Rotondone_4 Rotondone_5 Rotondone_6 -gneE12"/>
    </vehicle>
    <vehicle id="118" depart="236.00" color="1,0,0">
        <route edges="gneE228 gneE226 -gneE181 -gneE129 Rotonda_6 Rotonda_7 Rotonda_1 -gneE31 -gneE32"/>
    </vehicle>
    <vehicle id="119" depart="238.00" color="1,0,0">
        <route edges="Via_Nuova_Poggioreale_2 Via_Nuova_Poggioreale_1 gneE83 Via_Taddeo_Sessa_1 Corso_Meridionale Corso_Meridionale_1 Corso_Garibaldi_2 416695585 via_Cesare_Rosaroli -gneE211 Salita_Pontenuovo_1 Via_Pasquale_1"/>
    </vehicle>
    <vehicle id="120" depart="240.00" color="1,0,0">