<?xml version="1.0" encoding="UTF-8"?>

<!-- generated on 2022-09-14 01:08:19 by Eclipse SUMO netedit Version 1.14.0
-->

<routes xmlns:xsi="http://www.w3.org/2001/XMLSchema-instance" xsi:noNamespaceSchemaLocation="http://sumo.dlr.de/xsd/routes_file.xsd">
    <!-- Vehicles, persons and containers (sorted by depart) -->
    <flow id="f_0" begin="0.00" end="3600.00" vehsPerHour="700.00">
        <route edges="147391538#0 147391538#2 147391538#3 147391538#4 392822668 392822664#0 392822664#2 392822664#3 392822667 -147391538#5 -147391538#3 -147391538#2 -147391538#1"/>
    </flow>

    <flow id="f_1" begin="0.00" end="3600.00" vehsPerHour="300.00">
        <route edges="395276155#0 444635707 79262674 79396124#0 906511012 444643434 -442062982#9 -442062982#7 -443232790#1 -79396116#5 -79396116#4 -79396116#3 79396110#3 906511009 -906511009 -79396110#5 79396116#0 79396116#4 79396155#0"/>
    </flow>


</routes>
